
     RDKit          3D

 30 32  0  0  0  0  0  0  0  0999 V2000
   -2.1738   -2.4503    1.6065 O   0  0  0  0  0  0  0  0  0  0  0  0
   -1.6006   -1.5515    1.0008 C   0  0  0  0  0  0  0  0  0  0  0  0
   -0.1351   -1.4429    0.9896 C   0  0  0  0  0  0  0  0  0  0  0  0
    0.4374   -0.4402    0.3075 C   0  0  0  0  0  0  0  0  0  0  0  0
    1.9025   -0.2712    0.2666 C   0  0  0  0  0  0  0  0  0  0  0  0
    2.4658    1.0050    0.4292 C   0  0  0  0  0  0  0  0  0  0  0  0
    3.8513    1.1888    0.3856 C   0  0  0  0  0  0  0  0  0  0  0  0
    4.6787    0.0929    0.1715 C   0  0  0  0  0  0  0  0  0  0  0  0
    6.0342    0.2236    0.1207 O   0  0  0  0  0  0  0  0  0  0  0  0
    4.1445   -1.1773   -0.0017 C   0  0  0  0  0  0  0  0  0  0  0  0
    2.7599   -1.3598    0.0429 C   0  0  0  0  0  0  0  0  0  0  0  0
   -0.2652    0.5312   -0.3892 O   0  0  0  0  0  0  0  0  0  0  0  0
   -1.6364    0.4592   -0.4098 C   0  0  0  0  0  0  0  0  0  0  0  0
   -2.3098    1.4441   -1.1352 C   0  0  0  0  0  0  0  0  0  0  0  0
   -3.7014    1.4180   -1.1863 C   0  0  0  0  0  0  0  0  0  0  0  0
   -4.4022    2.3581   -1.8825 O   0  0  0  0  0  0  0  0  0  0  0  0
   -4.4256    0.4286   -0.5264 C   0  0  0  0  0  0  0  0  0  0  0  0
   -3.7488   -0.5511    0.1947 C   0  0  0  0  0  0  0  0  0  0  0  0
   -4.5110   -1.4986    0.8227 O   0  0  0  0  0  0  0  0  0  0  0  0
   -2.3519   -0.5368    0.2530 C   0  0  0  0  0  0  0  0  0  0  0  0
    0.4147   -2.1866    1.5518 H   0  0  0  0  0  0  0  0  0  0  0  0
    1.8265    1.8691    0.5995 H   0  0  0  0  0  0  0  0  0  0  0  0
    4.2591    2.1857    0.5194 H   0  0  0  0  0  0  0  0  0  0  0  0
    6.2635    1.1573    0.2582 H   0  0  0  0  0  0  0  0  0  0  0  0
    4.8028   -2.0241   -0.1756 H   0  0  0  0  0  0  0  0  0  0  0  0
    2.3631   -2.3606   -0.1121 H   0  0  0  0  0  0  0  0  0  0  0  0
   -1.7420    2.2136   -1.6485 H   0  0  0  0  0  0  0  0  0  0  0  0
   -3.7815    2.9761   -2.3026 H   0  0  0  0  0  0  0  0  0  0  0  0
   -5.5110    0.4201   -0.5740 H   0  0  0  0  0  0  0  0  0  0  0  0
   -3.9080   -2.1203    1.2893 H   0  0  0  0  0  0  0  0  0  0  0  0
  1  2  2  0
  2  3  1  0
  3  4  2  0
  4  5  1  0
  5  6  1  0
  6  7  2  0
  7  8  1  0
  8  9  1  0
  8 10  2  0
 10 11  1  0
  4 12  1  0
 12 13  1  0
 13 14  2  0
 14 15  1  0
 15 16  1  0
 15 17  2  0
 17 18  1  0
 18 19  1  0
 18 20  2  0
 20  2  1  0
 11  5  2  0
 20 13  1  0
  3 21  1  0
  6 22  1  0
  7 23  1  0
  9 24  1  0
 10 25  1  0
 11 26  1  0
 14 27  1  0
 16 28  1  0
 17 29  1  0
 19 30  1  0
M  END
