
     RDKit          3D

 43 47  0  0  0  0  0  0  0  0999 V2000
   -5.6374   -2.7924   -1.4540 C   0  0  0  0  0  0  0  0  0  0  0  0
   -4.2871   -2.7247   -1.8989 O   0  0  0  0  0  0  0  0  0  0  0  0
   -3.4002   -1.9733   -1.1790 C   0  0  0  0  0  0  0  0  0  0  0  0
   -3.7371   -1.3053    0.0016 C   0  0  0  0  0  0  0  0  0  0  0  0
   -2.8039   -0.5026    0.6632 C   0  0  0  0  0  0  0  0  0  0  0  0
   -1.5115   -0.3389    0.1527 C   0  0  0  0  0  0  0  0  0  0  0  0
   -0.5764    0.4818    0.7907 C   0  0  0  0  0  0  0  0  0  0  0  0
    0.7130    0.6470    0.2645 C   0  0  0  0  0  0  0  0  0  0  0  0
    1.0486   -0.0254   -0.8725 N   0  0  0  0  0  0  0  0  0  0  0  0
    0.1515   -0.8192   -1.5039 C   0  0  0  0  0  0  0  0  0  0  0  0
   -1.1481   -1.0102   -1.0237 C   0  0  0  0  0  0  0  0  0  0  0  0
   -2.0881   -1.8499   -1.6771 C   0  0  0  0  0  0  0  0  0  0  0  0
   -1.6083   -2.4485   -2.8222 O   0  0  0  0  0  0  0  0  0  0  0  0
   -2.1227   -3.7405   -3.1420 C   0  0  0  0  0  0  0  0  0  0  0  0
    2.3915    0.1379   -1.4894 C   0  0  0  0  0  0  0  0  0  0  0  0
    3.4607    0.1505   -0.4119 C   0  0  0  0  0  0  0  0  0  0  0  0
    3.1336    1.2379    0.5737 C   0  0  0  0  0  0  0  0  0  0  0  0
    4.1681    1.9686    1.1817 C   0  0  0  0  0  0  0  0  0  0  0  0
    3.8171    2.9591    2.0683 C   0  0  0  0  0  0  0  0  0  0  0  0
    2.5052    3.2279    2.3595 C   0  0  0  0  0  0  0  0  0  0  0  0
    1.4667    2.5165    1.7904 C   0  0  0  0  0  0  0  0  0  0  0  0
    1.7646    1.4810    0.8828 C   0  0  0  0  0  0  0  0  0  0  0  0
    2.3695    4.2455    3.2501 O   0  0  0  0  0  0  0  0  0  0  0  0
    3.7534    4.5852    3.4933 C   0  0  0  0  0  0  0  0  0  0  0  0
    4.6756    3.7698    2.7379 O   0  0  0  0  0  0  0  0  0  0  0  0
   -5.7043   -3.2786   -0.4754 H   0  0  0  0  0  0  0  0  0  0  0  0
   -6.0985   -1.7994   -1.4379 H   0  0  0  0  0  0  0  0  0  0  0  0
   -6.1934   -3.4062   -2.1691 H   0  0  0  0  0  0  0  0  0  0  0  0
   -4.7306   -1.3785    0.4359 H   0  0  0  0  0  0  0  0  0  0  0  0
   -3.1134    0.0033    1.5777 H   0  0  0  0  0  0  0  0  0  0  0  0
   -0.8585    0.9838    1.7145 H   0  0  0  0  0  0  0  0  0  0  0  0
    0.4888   -1.3033   -2.4175 H   0  0  0  0  0  0  0  0  0  0  0  0
   -3.0270   -3.6523   -3.7507 H   0  0  0  0  0  0  0  0  0  0  0  0
   -1.3699   -4.2498   -3.7520 H   0  0  0  0  0  0  0  0  0  0  0  0
   -2.2904   -4.3546   -2.2506 H   0  0  0  0  0  0  0  0  0  0  0  0
    2.3542    1.0758   -2.0569 H   0  0  0  0  0  0  0  0  0  0  0  0
    2.5707   -0.6905   -2.1825 H   0  0  0  0  0  0  0  0  0  0  0  0
    4.4389    0.3228   -0.8741 H   0  0  0  0  0  0  0  0  0  0  0  0
    3.4944   -0.8097    0.1159 H   0  0  0  0  0  0  0  0  0  0  0  0
    5.2157    1.7778    0.9678 H   0  0  0  0  0  0  0  0  0  0  0  0
    0.4513    2.7883    2.0625 H   0  0  0  0  0  0  0  0  0  0  0  0
    3.9641    4.4579    4.5613 H   0  0  0  0  0  0  0  0  0  0  0  0
    3.9098    5.6357    3.2230 H   0  0  0  0  0  0  0  0  0  0  0  0
  1  2  1  0
  2  3  1  0
  3  4  2  0
  4  5  1  0
  5  6  2  0
  6  7  1  0
  7  8  2  0
  8  9  1  0
  9 10  2  0
 10 11  1  0
 11 12  2  0
 12 13  1  0
 13 14  1  0
  9 15  1  0
 15 16  1  0
 16 17  1  0
 17 18  1  0
 18 19  2  0
 19 20  1  0
 20 21  2  0
 21 22  1  0
 20 23  1  0
 23 24  1  0
 24 25  1  0
 12  3  1  0
 22 17  2  0
 11  6  1  0
 25 19  1  0
 22  8  1  0
  1 26  1  0
  1 27  1  0
  1 28  1  0
  4 29  1  0
  5 30  1  0
  7 31  1  0
 10 32  1  0
 14 33  1  0
 14 34  1  0
 14 35  1  0
 15 36  1  0
 15 37  1  0
 16 38  1  0
 16 39  1  0
 18 40  1  0
 21 41  1  0
 24 42  1  0
 24 43  1  0
M  CHG  1   9   1
M  END
