
     RDKit          3D

 42 46  0  0  0  0  0  0  0  0999 V2000
   -3.4086    1.0111    2.2695 C   0  0  0  0  0  0  0  0  0  0  0  0
   -3.6324    1.4821    0.8335 C   0  0  0  0  0  0  0  0  0  0  0  0
   -3.5927    0.3705   -0.2437 C   0  0  1  0  0  0  0  0  0  0  0  0
   -4.2748   -0.7831    0.2792 O   0  0  0  0  0  0  0  0  0  0  0  0
   -4.3629    0.8484   -1.5139 C   0  0  0  0  0  0  0  0  0  0  0  0
   -4.9595    1.9197   -1.5917 O   0  0  0  0  0  0  0  0  0  0  0  0
   -4.3553   -0.0052   -2.5760 O   0  0  0  0  0  0  0  0  0  0  0  0
   -3.4408   -1.1221   -2.6204 C   0  0  0  0  0  0  0  0  0  0  0  0
   -2.1947   -0.8505   -1.8460 C   0  0  0  0  0  0  0  0  0  0  0  0
   -2.2255   -0.0925   -0.7268 C   0  0  0  0  0  0  0  0  0  0  0  0
   -0.9843    0.2125   -0.0333 C   0  0  0  0  0  0  0  0  0  0  0  0
    0.1612   -0.2945   -0.4998 C   0  0  0  0  0  0  0  0  0  0  0  0
    0.1924   -1.0950   -1.6246 N   0  0  0  0  0  0  0  0  0  0  0  0
   -0.9152   -1.4283   -2.3608 C   0  0  0  0  0  0  0  0  0  0  0  0
   -0.8876   -2.1452   -3.3542 O   0  0  0  0  0  0  0  0  0  0  0  0
    1.5604   -1.5220   -1.9404 C   0  0  0  0  0  0  0  0  0  0  0  0
    2.3582   -0.8716   -0.8534 C   0  0  0  0  0  0  0  0  0  0  0  0
    3.7102   -0.8894   -0.5920 C   0  0  0  0  0  0  0  0  0  0  0  0
    4.1705   -0.1698    0.5233 C   0  0  0  0  0  0  0  0  0  0  0  0
    5.5356   -0.1411    0.8520 C   0  0  0  0  0  0  0  0  0  0  0  0
    5.9792    0.5767    1.9611 C   0  0  0  0  0  0  0  0  0  0  0  0
    5.0640    1.2685    2.7467 C   0  0  0  0  0  0  0  0  0  0  0  0
    3.7041    1.2422    2.4227 C   0  0  0  0  0  0  0  0  0  0  0  0
    3.2278    0.5382    1.3263 C   0  0  0  0  0  0  0  0  0  0  0  0
    1.9061    0.5523    1.0678 N   0  0  0  0  0  0  0  0  0  0  0  0
    1.5259   -0.1483   -0.0080 C   0  0  0  0  0  0  0  0  0  0  0  0
   -4.2381    0.3816    2.6081 H   0  0  0  0  0  0  0  0  0  0  0  0
   -2.4843    0.4418    2.3880 H   0  0  0  0  0  0  0  0  0  0  0  0
   -3.3600    1.8754    2.9401 H   0  0  0  0  0  0  0  0  0  0  0  0
   -2.9212    2.2791    0.5835 H   0  0  0  0  0  0  0  0  0  0  0  0
   -4.6223    1.9575    0.8319 H   0  0  0  0  0  0  0  0  0  0  0  0
   -3.6331   -1.2944    0.8017 H   0  0  0  0  0  0  0  0  0  0  0  0
   -3.9564   -2.0158   -2.2539 H   0  0  0  0  0  0  0  0  0  0  0  0
   -3.2194   -1.2758   -3.6811 H   0  0  0  0  0  0  0  0  0  0  0  0
   -0.9628    0.8596    0.8359 H   0  0  0  0  0  0  0  0  0  0  0  0
    1.6128   -2.6142   -1.9015 H   0  0  0  0  0  0  0  0  0  0  0  0
    1.8307   -1.1546   -2.9350 H   0  0  0  0  0  0  0  0  0  0  0  0
    4.3925   -1.4421   -1.2299 H   0  0  0  0  0  0  0  0  0  0  0  0
    6.2628   -0.6772    0.2461 H   0  0  0  0  0  0  0  0  0  0  0  0
    7.0372    0.5963    2.2112 H   0  0  0  0  0  0  0  0  0  0  0  0
    5.4026    1.8311    3.6131 H   0  0  0  0  0  0  0  0  0  0  0  0
    2.9979    1.7878    3.0444 H   0  0  0  0  0  0  0  0  0  0  0  0
  1  2  1  0
  2  3  1  0
  3  4  1  1
  3  5  1  0
  5  6  2  0
  5  7  1  0
  7  8  1  0
  8  9  1  0
  9 10  2  0
 10 11  1  0
 11 12  2  0
 12 13  1  0
 13 14  1  0
 14 15  2  0
 13 16  1  0
 16 17  1  0
 17 18  2  0
 18 19  1  0
 19 20  2  0
 20 21  1  0
 21 22  2  0
 22 23  1  0
 23 24  2  0
 24 25  1  0
 25 26  2  0
 10  3  1  0
 26 12  1  0
 14  9  1  0
 26 17  1  0
 24 19  1  0
  1 27  1  0
  1 28  1  0
  1 29  1  0
  2 30  1  0
  2 31  1  0
  4 32  1  0
  8 33  1  0
  8 34  1  0
 11 35  1  0
 16 36  1  0
 16 37  1  0
 18 38  1  0
 20 39  1  0
 21 40  1  0
 22 41  1  0
 23 42  1  0
M  END
