
     RDKit          3D

 35 37  0  0  0  0  0  0  0  0999 V2000
   -4.2533    3.4422   -0.6397 O   0  0  0  0  0  0  0  0  0  0  0  0
   -3.6863    2.2048   -0.5573 C   0  0  0  0  0  0  0  0  0  0  0  0
   -4.4562    1.0507   -0.6102 C   0  0  0  0  0  0  0  0  0  0  0  0
   -3.8307   -0.1923   -0.5181 C   0  0  0  0  0  0  0  0  0  0  0  0
   -4.6586   -1.2782   -0.5918 O   0  0  0  0  0  0  0  0  0  0  0  0
   -2.4413   -0.3007   -0.3598 C   0  0  0  0  0  0  0  0  0  0  0  0
   -1.6858    0.8806   -0.3420 C   0  0  0  0  0  0  0  0  0  0  0  0
   -2.3069    2.1283   -0.4244 C   0  0  0  0  0  0  0  0  0  0  0  0
   -0.3230    0.9139   -0.2138 O   0  0  0  0  0  0  0  0  0  0  0  0
    0.3471   -0.3266   -0.4748 C   0  0  1  0  0  0  0  0  0  0  0  0
    1.8006   -0.1576   -0.0550 C   0  0  0  0  0  0  0  0  0  0  0  0
    2.8379   -0.5071   -0.9408 C   0  0  0  0  0  0  0  0  0  0  0  0
    4.1791   -0.3820   -0.5630 C   0  0  0  0  0  0  0  0  0  0  0  0
    4.4839    0.0900    0.7068 C   0  0  0  0  0  0  0  0  0  0  0  0
    5.7745    0.2320    1.1355 O   0  0  0  0  0  0  0  0  0  0  0  0
    3.4663    0.4353    1.5910 C   0  0  0  0  0  0  0  0  0  0  0  0
    3.7746    0.8929    2.8399 O   0  0  0  0  0  0  0  0  0  0  0  0
    2.1329    0.3197    1.2237 C   0  0  0  0  0  0  0  0  0  0  0  0
   -0.3197   -1.4989    0.2679 C   0  0  2  0  0  0  0  0  0  0  0  0
    0.3422   -2.7462    0.0290 O   0  0  0  0  0  0  0  0  0  0  0  0
   -1.7574   -1.6302   -0.2293 C   0  0  0  0  0  0  0  0  0  0  0  0
   -5.2163    3.3369   -0.7137 H   0  0  0  0  0  0  0  0  0  0  0  0
   -5.5345    1.0951   -0.7234 H   0  0  0  0  0  0  0  0  0  0  0  0
   -4.1331   -2.0922   -0.6392 H   0  0  0  0  0  0  0  0  0  0  0  0
   -1.7134    3.0377   -0.3899 H   0  0  0  0  0  0  0  0  0  0  0  0
    0.3233   -0.5044   -1.5594 H   0  0  0  0  0  0  0  0  0  0  0  0
    2.6045   -0.8803   -1.9368 H   0  0  0  0  0  0  0  0  0  0  0  0
    4.9581   -0.6558   -1.2673 H   0  0  0  0  0  0  0  0  0  0  0  0
    6.3656   -0.0123    0.4027 H   0  0  0  0  0  0  0  0  0  0  0  0
    4.7522    0.9076    2.8612 H   0  0  0  0  0  0  0  0  0  0  0  0
    1.3591    0.6098    1.9303 H   0  0  0  0  0  0  0  0  0  0  0  0
   -0.3327   -1.3171    1.3505 H   0  0  0  0  0  0  0  0  0  0  0  0
    1.2219   -2.6840    0.4463 H   0  0  0  0  0  0  0  0  0  0  0  0
   -1.7727   -2.1335   -1.2049 H   0  0  0  0  0  0  0  0  0  0  0  0
   -2.3019   -2.2781    0.4688 H   0  0  0  0  0  0  0  0  0  0  0  0
  1  2  1  0
  2  3  2  0
  3  4  1  0
  4  5  1  0
  4  6  2  0
  6  7  1  0
  7  8  2  0
  7  9  1  0
  9 10  1  0
 10 11  1  0
 11 12  1  0
 12 13  2  0
 13 14  1  0
 14 15  1  0
 14 16  2  0
 16 17  1  0
 16 18  1  0
 10 19  1  0
 19 20  1  0
 19 21  1  0
  8  2  1  0
 18 11  2  0
 21  6  1  0
  1 22  1  0
  3 23  1  0
  5 24  1  0
  8 25  1  0
 10 26  1  6
 12 27  1  0
 13 28  1  0
 15 29  1  0
 17 30  1  0
 18 31  1  0
 19 32  1  1
 20 33  1  0
 21 34  1  0
 21 35  1  0
M  END
