
     RDKit          3D

 27 26  0  0  0  0  0  0  0  0999 V2000
   -2.7313    1.0636    0.5895 C   0  0  0  0  0  0  0  0  0  0  0  0
   -2.6392   -0.0952   -0.3649 C   0  0  0  0  0  0  0  0  0  0  0  0
   -3.8927   -0.3389   -1.1646 C   0  0  0  0  0  0  0  0  0  0  0  0
   -1.5522   -0.8724   -0.5378 C   0  0  0  0  0  0  0  0  0  0  0  0
   -0.2398   -0.7918    0.1942 C   0  0  0  0  0  0  0  0  0  0  0  0
    0.8433   -0.1387   -0.6724 C   0  0  0  0  0  0  0  0  0  0  0  0
    2.1748   -0.0091    0.0503 C   0  0  0  0  0  0  0  0  0  0  0  0
    2.9114   -1.3052    0.2603 C   0  0  0  0  0  0  0  0  0  0  0  0
    2.6111    1.2109    0.4184 C   0  0  0  0  0  0  0  0  0  0  0  0
    3.8699    1.5087    1.1361 C   0  0  0  0  0  0  0  0  0  0  0  0
    4.1873    2.6622    1.4021 O   0  0  0  0  0  0  0  0  0  0  0  0
   -3.4538    0.8421    1.3817 H   0  0  0  0  0  0  0  0  0  0  0  0
   -3.0662    1.9616    0.0590 H   0  0  0  0  0  0  0  0  0  0  0  0
   -1.7787    1.3134    1.0621 H   0  0  0  0  0  0  0  0  0  0  0  0
   -3.7940   -1.1927   -1.8432 H   0  0  0  0  0  0  0  0  0  0  0  0
   -4.7349   -0.5426   -0.4951 H   0  0  0  0  0  0  0  0  0  0  0  0
   -4.1337    0.5409   -1.7703 H   0  0  0  0  0  0  0  0  0  0  0  0
   -1.6009   -1.6742   -1.2750 H   0  0  0  0  0  0  0  0  0  0  0  0
    0.0549   -1.8144    0.4609 H   0  0  0  0  0  0  0  0  0  0  0  0
   -0.3396   -0.2564    1.1441 H   0  0  0  0  0  0  0  0  0  0  0  0
    0.4933    0.8499   -0.9994 H   0  0  0  0  0  0  0  0  0  0  0  0
    0.9927   -0.7186   -1.5928 H   0  0  0  0  0  0  0  0  0  0  0  0
    2.4137   -1.9063    1.0275 H   0  0  0  0  0  0  0  0  0  0  0  0
    2.9321   -1.8826   -0.6704 H   0  0  0  0  0  0  0  0  0  0  0  0
    3.9514   -1.1704    0.5641 H   0  0  0  0  0  0  0  0  0  0  0  0
    2.0216    2.1004    0.2102 H   0  0  0  0  0  0  0  0  0  0  0  0
    4.4995    0.6557    1.4253 H   0  0  0  0  0  0  0  0  0  0  0  0
  1  2  1  0
  2  3  1  0
  2  4  2  3
  4  5  1  0
  5  6  1  0
  6  7  1  0
  7  8  1  0
  7  9  2  0
  9 10  1  0
 10 11  2  0
  1 12  1  0
  1 13  1  0
  1 14  1  0
  3 15  1  0
  3 16  1  0
  3 17  1  0
  4 18  1  0
  5 19  1  0
  5 20  1  0
  6 21  1  0
  6 22  1  0
  8 23  1  0
  8 24  1  0
  8 25  1  0
  9 26  1  0
 10 27  1  0
M  END
