
     RDKit          3D

 29 31  0  0  0  0  0  0  0  0999 V2000
    0.0246   -0.4292   -2.0062 O   0  0  0  0  0  0  0  0  0  0  0  0
    0.4747   -0.1680   -0.8966 C   0  0  0  0  0  0  0  0  0  0  0  0
   -0.3888    0.0043    0.3073 C   0  0  0  0  0  0  0  0  0  0  0  0
   -1.8583   -0.1198    0.2526 C   0  0  0  0  0  0  0  0  0  0  0  0
   -2.5535   -0.9012    1.1903 C   0  0  0  0  0  0  0  0  0  0  0  0
   -3.9456   -1.0080    1.1371 C   0  0  0  0  0  0  0  0  0  0  0  0
   -4.6499   -0.3409    0.1437 C   0  0  0  0  0  0  0  0  0  0  0  0
   -6.0061   -0.4753    0.1264 O   0  0  0  0  0  0  0  0  0  0  0  0
   -3.9858    0.4325   -0.8008 C   0  0  0  0  0  0  0  0  0  0  0  0
   -2.5927    0.5407   -0.7443 C   0  0  0  0  0  0  0  0  0  0  0  0
    0.2287    0.3138    1.4590 C   0  0  0  0  0  0  0  0  0  0  0  0
    1.5790    0.4720    1.6568 O   0  0  0  0  0  0  0  0  0  0  0  0
    2.4053    0.3040    0.5753 C   0  0  0  0  0  0  0  0  0  0  0  0
    3.7752    0.4616    0.7927 C   0  0  0  0  0  0  0  0  0  0  0  0
    4.6542    0.3025   -0.2752 C   0  0  0  0  0  0  0  0  0  0  0  0
    6.0003    0.4460   -0.1146 O   0  0  0  0  0  0  0  0  0  0  0  0
    4.1866   -0.0097   -1.5487 C   0  0  0  0  0  0  0  0  0  0  0  0
    2.8167   -0.1665   -1.7636 C   0  0  0  0  0  0  0  0  0  0  0  0
    1.9268   -0.0085   -0.6957 C   0  0  0  0  0  0  0  0  0  0  0  0
   -2.0200   -1.4466    1.9654 H   0  0  0  0  0  0  0  0  0  0  0  0
   -4.4766   -1.6162    1.8639 H   0  0  0  0  0  0  0  0  0  0  0  0
   -6.3541    0.0071   -0.6416 H   0  0  0  0  0  0  0  0  0  0  0  0
   -4.5249    0.9524   -1.5863 H   0  0  0  0  0  0  0  0  0  0  0  0
   -2.0834    1.1426   -1.4951 H   0  0  0  0  0  0  0  0  0  0  0  0
   -0.2904    0.4880    2.3945 H   0  0  0  0  0  0  0  0  0  0  0  0
    4.1347    0.7052    1.7871 H   0  0  0  0  0  0  0  0  0  0  0  0
    6.1889    0.6590    0.8144 H   0  0  0  0  0  0  0  0  0  0  0  0
    4.8866   -0.1307   -2.3714 H   0  0  0  0  0  0  0  0  0  0  0  0
    2.4479   -0.4111   -2.7574 H   0  0  0  0  0  0  0  0  0  0  0  0
  1  2  2  0
  2  3  1  0
  3  4  1  0
  4  5  1  0
  5  6  2  0
  6  7  1  0
  7  8  1  0
  7  9  2  0
  9 10  1  0
  3 11  2  0
 11 12  1  0
 12 13  1  0
 13 14  1  0
 14 15  2  0
 15 16  1  0
 15 17  1  0
 17 18  2  0
 18 19  1  0
 19  2  1  0
 10  4  2  0
 19 13  2  0
  5 20  1  0
  6 21  1  0
  8 22  1  0
  9 23  1  0
 10 24  1  0
 11 25  1  0
 14 26  1  0
 16 27  1  0
 17 28  1  0
 18 29  1  0
M  END
