
     RDKit          3D

 27 27  0  0  0  0  0  0  0  0999 V2000
   -1.9005    0.9253   -1.5919 C   0  0  0  0  0  0  0  0  0  0  0  0
   -1.6677    1.1696   -0.1769 N   0  0  0  0  0  0  0  0  0  0  0  0
   -1.5300   -0.0483    0.6519 C   0  0  1  0  0  0  0  0  0  0  0  0
   -2.8507   -0.8325    0.7101 C   0  0  0  0  0  0  0  0  0  0  0  0
   -0.3336   -0.9892    0.2891 C   0  0  2  0  0  0  0  0  0  0  0  0
   -0.2927   -2.0972    1.2016 O   0  0  0  0  0  0  0  0  0  0  0  0
    1.0295   -0.3197    0.2981 C   0  0  0  0  0  0  0  0  0  0  0  0
    1.8239   -0.3176   -0.8585 C   0  0  0  0  0  0  0  0  0  0  0  0
    3.0888    0.2738   -0.8520 C   0  0  0  0  0  0  0  0  0  0  0  0
    3.5773    0.8655    0.3109 C   0  0  0  0  0  0  0  0  0  0  0  0
    2.8027    0.8659    1.4686 C   0  0  0  0  0  0  0  0  0  0  0  0
    1.5379    0.2753    1.4637 C   0  0  0  0  0  0  0  0  0  0  0  0
   -1.9626    1.8863   -2.1130 H   0  0  0  0  0  0  0  0  0  0  0  0
   -2.8417    0.3977   -1.7706 H   0  0  0  0  0  0  0  0  0  0  0  0
   -1.0815    0.3677   -2.0538 H   0  0  0  0  0  0  0  0  0  0  0  0
   -2.4287    1.7380    0.1940 H   0  0  0  0  0  0  0  0  0  0  0  0
   -1.3613    0.3099    1.6763 H   0  0  0  0  0  0  0  0  0  0  0  0
   -2.8178   -1.5933    1.4973 H   0  0  0  0  0  0  0  0  0  0  0  0
   -3.0635   -1.3411   -0.2358 H   0  0  0  0  0  0  0  0  0  0  0  0
   -3.6925   -0.1698    0.9403 H   0  0  0  0  0  0  0  0  0  0  0  0
   -0.5150   -1.4298   -0.6985 H   0  0  0  0  0  0  0  0  0  0  0  0
    0.6372   -2.3761    1.2698 H   0  0  0  0  0  0  0  0  0  0  0  0
    1.4604   -0.7728   -1.7770 H   0  0  0  0  0  0  0  0  0  0  0  0
    3.6921    0.2750   -1.7560 H   0  0  0  0  0  0  0  0  0  0  0  0
    4.5605    1.3283    0.3143 H   0  0  0  0  0  0  0  0  0  0  0  0
    3.1815    1.3283    2.3763 H   0  0  0  0  0  0  0  0  0  0  0  0
    0.9479    0.2807    2.3777 H   0  0  0  0  0  0  0  0  0  0  0  0
  1  2  1  0
  2  3  1  0
  3  4  1  0
  3  5  1  0
  5  6  1  0
  5  7  1  0
  7  8  2  0
  8  9  1  0
  9 10  2  0
 10 11  1  0
 11 12  2  0
 12  7  1  0
  1 13  1  0
  1 14  1  0
  1 15  1  0
  2 16  1  0
  3 17  1  1
  4 18  1  0
  4 19  1  0
  4 20  1  0
  5 21  1  6
  6 22  1  0
  8 23  1  0
  9 24  1  0
 10 25  1  0
 11 26  1  0
 12 27  1  0
M  END
