
     RDKit          3D

 42 41  0  0  0  0  0  0  0  0999 V2000
   -2.4780    2.0491   -1.2036 C   0  0  0  0  0  0  0  0  0  0  0  0
   -2.9601    2.4379    0.1676 C   0  0  0  0  0  0  0  0  0  0  0  0
   -4.3218    3.0823    0.1838 C   0  0  0  0  0  0  0  0  0  0  0  0
   -2.2791    2.2430    1.3140 C   0  0  0  0  0  0  0  0  0  0  0  0
   -0.9051    1.6497    1.4775 C   0  0  0  0  0  0  0  0  0  0  0  0
   -0.9722    0.2374    2.0714 C   0  0  0  0  0  0  0  0  0  0  0  0
    0.3880   -0.4375    2.1183 C   0  0  0  0  0  0  0  0  0  0  0  0
    1.3162    0.0630    3.1916 C   0  0  0  0  0  0  0  0  0  0  0  0
    0.6840   -1.4109    1.2337 C   0  0  0  0  0  0  0  0  0  0  0  0
    1.9606   -2.1994    1.1090 C   0  0  0  0  0  0  0  0  0  0  0  0
    2.8667   -1.6866   -0.0209 C   0  0  0  0  0  0  0  0  0  0  0  0
    2.2645   -1.7990   -1.4143 C   0  0  0  0  0  0  0  0  0  0  0  0
    2.1725   -3.1993   -1.9579 C   0  0  0  0  0  0  0  0  0  0  0  0
    1.8771   -0.6869   -2.0722 C   0  0  0  0  0  0  0  0  0  0  0  0
    1.2605   -0.5691   -3.4280 C   0  0  0  0  0  0  0  0  0  0  0  0
   -0.0244    0.0171   -3.2781 O   0  0  0  0  0  0  0  0  0  0  0  0
   -2.3030    2.9444   -1.8089 H   0  0  0  0  0  0  0  0  0  0  0  0
   -1.5551    1.4659   -1.1900 H   0  0  0  0  0  0  0  0  0  0  0  0
   -3.2324    1.4349   -1.7070 H   0  0  0  0  0  0  0  0  0  0  0  0
   -5.0716    2.3957   -0.2227 H   0  0  0  0  0  0  0  0  0  0  0  0
   -4.6389    3.3600    1.1945 H   0  0  0  0  0  0  0  0  0  0  0  0
   -4.3167    3.9928   -0.4244 H   0  0  0  0  0  0  0  0  0  0  0  0
   -2.7404    2.5562    2.2508 H   0  0  0  0  0  0  0  0  0  0  0  0
   -0.3345    2.3099    2.1423 H   0  0  0  0  0  0  0  0  0  0  0  0
   -0.3550    1.6371    0.5312 H   0  0  0  0  0  0  0  0  0  0  0  0
   -1.6717   -0.3702    1.4812 H   0  0  0  0  0  0  0  0  0  0  0  0
   -1.3923    0.2713    3.0851 H   0  0  0  0  0  0  0  0  0  0  0  0
    0.8710   -0.1001    4.1786 H   0  0  0  0  0  0  0  0  0  0  0  0
    1.5010    1.1348    3.0696 H   0  0  0  0  0  0  0  0  0  0  0  0
    2.2915   -0.4281    3.1860 H   0  0  0  0  0  0  0  0  0  0  0  0
   -0.0706   -1.6811    0.4945 H   0  0  0  0  0  0  0  0  0  0  0  0
    1.7005   -3.2516    0.9408 H   0  0  0  0  0  0  0  0  0  0  0  0
    2.5254   -2.1905    2.0465 H   0  0  0  0  0  0  0  0  0  0  0  0
    3.8084   -2.2503   -0.0039 H   0  0  0  0  0  0  0  0  0  0  0  0
    3.1458   -0.6460    0.1926 H   0  0  0  0  0  0  0  0  0  0  0  0
    1.8799   -3.2386   -3.0090 H   0  0  0  0  0  0  0  0  0  0  0  0
    3.1446   -3.6978   -1.8811 H   0  0  0  0  0  0  0  0  0  0  0  0
    1.4401   -3.7816   -1.3902 H   0  0  0  0  0  0  0  0  0  0  0  0
    2.0026    0.2759   -1.5755 H   0  0  0  0  0  0  0  0  0  0  0  0
    1.8665    0.0879   -4.0588 H   0  0  0  0  0  0  0  0  0  0  0  0
    1.1408   -1.5202   -3.9489 H   0  0  0  0  0  0  0  0  0  0  0  0
   -0.4857   -0.5015   -2.5966 H   0  0  0  0  0  0  0  0  0  0  0  0
  1  2  1  0
  2  3  1  0
  2  4  2  3
  4  5  1  0
  5  6  1  0
  6  7  1  0
  7  8  1  0
  7  9  2  0
  9 10  1  0
 10 11  1  0
 11 12  1  0
 12 13  1  0
 12 14  2  0
 14 15  1  0
 15 16  1  0
  1 17  1  0
  1 18  1  0
  1 19  1  0
  3 20  1  0
  3 21  1  0
  3 22  1  0
  4 23  1  0
  5 24  1  0
  5 25  1  0
  6 26  1  0
  6 27  1  0
  8 28  1  0
  8 29  1  0
  8 30  1  0
  9 31  1  0
 10 32  1  0
 10 33  1  0
 11 34  1  0
 11 35  1  0
 13 36  1  0
 13 37  1  0
 13 38  1  0
 14 39  1  0
 15 40  1  0
 15 41  1  0
 16 42  1  0
M  END
