
     RDKit          3D

 29 28  0  0  0  0  0  0  0  0999 V2000
    4.2529   -0.6328   -1.1405 C   0  0  0  0  0  0  0  0  0  0  0  0
    2.9893   -0.5641   -0.3231 C   0  0  0  0  0  0  0  0  0  0  0  0
    3.2122   -0.2935    1.1393 C   0  0  0  0  0  0  0  0  0  0  0  0
    1.7852   -0.7272   -0.9053 C   0  0  0  0  0  0  0  0  0  0  0  0
    0.4341   -0.7237   -0.2408 C   0  0  0  0  0  0  0  0  0  0  0  0
   -0.3007    0.6013   -0.4747 C   0  0  0  0  0  0  0  0  0  0  0  0
   -1.6946    0.6121    0.1285 C   0  0  0  0  0  0  0  0  0  0  0  0
   -1.7435    0.6850    1.6310 C   0  0  0  0  0  0  0  0  0  0  0  0
   -2.7802    0.5864   -0.6718 C   0  0  0  0  0  0  0  0  0  0  0  0
   -4.2195    0.5693   -0.2761 C   0  0  0  0  0  0  0  0  0  0  0  0
   -4.8590   -0.4419   -1.0419 O   0  0  0  0  0  0  0  0  0  0  0  0
    4.9038   -1.4290   -0.7645 H   0  0  0  0  0  0  0  0  0  0  0  0
    4.7947    0.3169   -1.0825 H   0  0  0  0  0  0  0  0  0  0  0  0
    4.0541   -0.8380   -2.1977 H   0  0  0  0  0  0  0  0  0  0  0  0
    2.2879   -0.1117    1.6925 H   0  0  0  0  0  0  0  0  0  0  0  0
    3.7239   -1.1417    1.6053 H   0  0  0  0  0  0  0  0  0  0  0  0
    3.8368    0.5975    1.2656 H   0  0  0  0  0  0  0  0  0  0  0  0
    1.7473   -0.9011   -1.9810 H   0  0  0  0  0  0  0  0  0  0  0  0
    0.5184   -0.9365    0.8293 H   0  0  0  0  0  0  0  0  0  0  0  0
   -0.1512   -1.5518   -0.6610 H   0  0  0  0  0  0  0  0  0  0  0  0
   -0.3534    0.7988   -1.5540 H   0  0  0  0  0  0  0  0  0  0  0  0
    0.2767    1.4329   -0.0498 H   0  0  0  0  0  0  0  0  0  0  0  0
   -1.4460   -0.2720    2.0702 H   0  0  0  0  0  0  0  0  0  0  0  0
   -1.0598    1.4597    1.9948 H   0  0  0  0  0  0  0  0  0  0  0  0
   -2.7341    0.9391    2.0157 H   0  0  0  0  0  0  0  0  0  0  0  0
   -2.6280    0.5555   -1.7504 H   0  0  0  0  0  0  0  0  0  0  0  0
   -4.3756    0.3419    0.7803 H   0  0  0  0  0  0  0  0  0  0  0  0
   -4.6849    1.5306   -0.5130 H   0  0  0  0  0  0  0  0  0  0  0  0
   -5.7869   -0.4620   -0.7552 H   0  0  0  0  0  0  0  0  0  0  0  0
  1  2  1  0
  2  3  1  0
  2  4  2  3
  4  5  1  0
  5  6  1  0
  6  7  1  0
  7  8  1  0
  7  9  2  0
  9 10  1  0
 10 11  1  0
  1 12  1  0
  1 13  1  0
  1 14  1  0
  3 15  1  0
  3 16  1  0
  3 17  1  0
  4 18  1  0
  5 19  1  0
  5 20  1  0
  6 21  1  0
  6 22  1  0
  8 23  1  0
  8 24  1  0
  8 25  1  0
  9 26  1  0
 10 27  1  0
 10 28  1  0
 11 29  1  0
M  END
