
     RDKit          3D

 36 38  0  0  0  0  0  0  0  0999 V2000
    5.9506   -1.1884   -0.4866 C   0  0  0  0  0  0  0  0  0  0  0  0
    5.2006   -0.1899   -1.1690 O   0  0  0  0  0  0  0  0  0  0  0  0
    3.8698   -0.1010   -0.8525 C   0  0  0  0  0  0  0  0  0  0  0  0
    3.1901   -0.8782    0.0825 C   0  0  0  0  0  0  0  0  0  0  0  0
    1.8212   -0.6732    0.3032 C   0  0  0  0  0  0  0  0  0  0  0  0
    1.1089    0.3058   -0.4106 C   0  0  0  0  0  0  0  0  0  0  0  0
   -0.3673    0.5546   -0.1629 C   0  0  2  0  0  0  0  0  0  0  0  0
   -0.5573    1.4905    1.0231 C   0  0  0  0  0  0  0  0  0  0  0  0
   -2.0299    1.7085    1.2163 C   0  0  0  0  0  0  0  0  0  0  0  0
   -2.4992    2.7424    1.6865 O   0  0  0  0  0  0  0  0  0  0  0  0
   -2.9218    0.5842    0.8794 C   0  0  0  0  0  0  0  0  0  0  0  0
   -4.2987    0.6413    1.1238 C   0  0  0  0  0  0  0  0  0  0  0  0
   -4.9178    1.7436    1.6489 O   0  0  0  0  0  0  0  0  0  0  0  0
   -5.1086   -0.4564    0.8426 C   0  0  0  0  0  0  0  0  0  0  0  0
   -4.5292   -1.6120    0.3255 C   0  0  0  0  0  0  0  0  0  0  0  0
   -5.2800   -2.7150    0.0439 O   0  0  0  0  0  0  0  0  0  0  0  0
   -3.1608   -1.6809    0.0771 C   0  0  0  0  0  0  0  0  0  0  0  0
   -2.3568   -0.5729    0.3396 C   0  0  0  0  0  0  0  0  0  0  0  0
   -1.0202   -0.7053    0.0687 O   0  0  0  0  0  0  0  0  0  0  0  0
    1.8000    1.0887   -1.3447 C   0  0  0  0  0  0  0  0  0  0  0  0
    3.1585    0.8776   -1.5542 C   0  0  0  0  0  0  0  0  0  0  0  0
    3.7959    1.6634   -2.4765 O   0  0  0  0  0  0  0  0  0  0  0  0
    5.5666   -2.1900   -0.7066 H   0  0  0  0  0  0  0  0  0  0  0  0
    5.9699   -0.9988    0.5917 H   0  0  0  0  0  0  0  0  0  0  0  0
    6.9810   -1.1393   -0.8516 H   0  0  0  0  0  0  0  0  0  0  0  0
    3.6878   -1.6513    0.6581 H   0  0  0  0  0  0  0  0  0  0  0  0
    1.3100   -1.2927    1.0388 H   0  0  0  0  0  0  0  0  0  0  0  0
   -0.8035    0.9865   -1.0759 H   0  0  0  0  0  0  0  0  0  0  0  0
   -0.0765    2.4568    0.8353 H   0  0  0  0  0  0  0  0  0  0  0  0
   -0.1569    1.0676    1.9518 H   0  0  0  0  0  0  0  0  0  0  0  0
   -4.2321    2.4303    1.8156 H   0  0  0  0  0  0  0  0  0  0  0  0
   -6.1742   -0.3947    1.0395 H   0  0  0  0  0  0  0  0  0  0  0  0
   -6.2085   -2.5277    0.2633 H   0  0  0  0  0  0  0  0  0  0  0  0
   -2.7274   -2.5909   -0.3289 H   0  0  0  0  0  0  0  0  0  0  0  0
    1.2933    1.8635   -1.9142 H   0  0  0  0  0  0  0  0  0  0  0  0
    4.7226    1.3534   -2.4716 H   0  0  0  0  0  0  0  0  0  0  0  0
  1  2  1  0
  2  3  1  0
  3  4  1  0
  4  5  2  0
  5  6  1  0
  6  7  1  0
  7  8  1  0
  8  9  1  0
  9 10  2  0
  9 11  1  0
 11 12  2  0
 12 13  1  0
 12 14  1  0
 14 15  2  0
 15 16  1  0
 15 17  1  0
 17 18  2  0
 18 19  1  0
  6 20  2  0
 20 21  1  0
 21 22  1  0
 21  3  2  0
 19  7  1  0
 18 11  1  0
  1 23  1  0
  1 24  1  0
  1 25  1  0
  4 26  1  0
  5 27  1  0
  7 28  1  6
  8 29  1  0
  8 30  1  0
 13 31  1  0
 14 32  1  0
 16 33  1  0
 17 34  1  0
 20 35  1  0
 22 36  1  0
M  END
