
     RDKit          3D

 26 26  0  0  0  0  0  0  0  0999 V2000
    3.0248    1.3485   -0.0260 C   0  0  0  0  0  0  0  0  0  0  0  0
    2.2172    0.2842    0.1250 C   0  0  0  0  0  0  0  0  0  0  0  0
    2.7936   -1.0989    0.2731 C   0  0  0  0  0  0  0  0  0  0  0  0
    0.7017    0.4499    0.1586 C   0  0  1  0  0  0  0  0  0  0  0  0
    0.0158   -0.1544   -1.0840 C   0  0  0  0  0  0  0  0  0  0  0  0
   -1.4829   -0.2036   -0.9663 C   0  0  0  0  0  0  0  0  0  0  0  0
   -2.1471   -0.0309    0.1905 C   0  0  0  0  0  0  0  0  0  0  0  0
   -3.6468   -0.0492    0.2590 C   0  0  0  0  0  0  0  0  0  0  0  0
   -1.4290    0.1960    1.4988 C   0  0  0  0  0  0  0  0  0  0  0  0
    0.0700   -0.1176    1.4388 C   0  0  0  0  0  0  0  0  0  0  0  0
    4.1057    1.2458   -0.0481 H   0  0  0  0  0  0  0  0  0  0  0  0
    2.6295    2.3545   -0.1322 H   0  0  0  0  0  0  0  0  0  0  0  0
    2.4214   -1.7651   -0.5101 H   0  0  0  0  0  0  0  0  0  0  0  0
    2.5365   -1.5241    1.2479 H   0  0  0  0  0  0  0  0  0  0  0  0
    3.8869   -1.0945    0.2005 H   0  0  0  0  0  0  0  0  0  0  0  0
    0.4794    1.5283    0.1521 H   0  0  0  0  0  0  0  0  0  0  0  0
    0.2814    0.4438   -1.9645 H   0  0  0  0  0  0  0  0  0  0  0  0
    0.3662   -1.1748   -1.2767 H   0  0  0  0  0  0  0  0  0  0  0  0
   -2.0300   -0.3847   -1.8888 H   0  0  0  0  0  0  0  0  0  0  0  0
   -4.1024   -0.2007   -0.7252 H   0  0  0  0  0  0  0  0  0  0  0  0
   -3.9875   -0.8585    0.9128 H   0  0  0  0  0  0  0  0  0  0  0  0
   -4.0193    0.9004    0.6565 H   0  0  0  0  0  0  0  0  0  0  0  0
   -1.5700    1.2430    1.7949 H   0  0  0  0  0  0  0  0  0  0  0  0
   -1.8797   -0.4237    2.2833 H   0  0  0  0  0  0  0  0  0  0  0  0
    0.5614    0.2932    2.3293 H   0  0  0  0  0  0  0  0  0  0  0  0
    0.2032   -1.2068    1.4763 H   0  0  0  0  0  0  0  0  0  0  0  0
  1  2  2  0
  2  3  1  0
  2  4  1  0
  4  5  1  0
  5  6  1  0
  6  7  2  0
  7  8  1  0
  7  9  1  0
  9 10  1  0
 10  4  1  0
  1 11  1  0
  1 12  1  0
  3 13  1  0
  3 14  1  0
  3 15  1  0
  4 16  1  1
  5 17  1  0
  5 18  1  0
  6 19  1  0
  8 20  1  0
  8 21  1  0
  8 22  1  0
  9 23  1  0
  9 24  1  0
 10 25  1  0
 10 26  1  0
M  END
