
     RDKit          3D

113119  0  0  0  0  0  0  0  0999 V2000
   -3.1604    6.3831   -1.6703 C   0  0  0  0  0  0  0  0  0  0  0  0
   -2.7844    5.3557   -0.6476 C   0  0  0  0  0  0  0  0  0  0  0  0
   -2.6172    5.5930    0.5404 O   0  0  0  0  0  0  0  0  0  0  0  0
   -2.6258    4.1456   -1.2449 O   0  0  0  0  0  0  0  0  0  0  0  0
   -2.4231    3.0532   -0.3455 C   0  0  1  0  0  0  0  0  0  0  0  0
   -3.7602    2.5022    0.2028 C   0  0  0  0  0  0  0  0  0  0  0  0
   -4.8202    3.0193   -0.1839 O   0  0  0  0  0  0  0  0  0  0  0  0
   -3.7767    1.3388    1.2581 C   0  0  1  0  0  0  0  0  0  0  0  0
   -5.2782    0.9668    1.4074 C   0  0  0  0  0  0  0  0  0  0  0  0
   -2.8707    0.0744    0.9184 C   0  0  2  0  0  0  0  0  0  0  0  0
   -3.1694   -0.6899   -0.4371 C   0  0  2  0  0  0  0  0  0  0  0  0
   -2.9591   -2.1283   -0.2470 O   0  0  0  0  0  0  0  0  0  0  0  0
   -3.9793   -2.9789   -0.5270 C   0  0  0  0  0  0  0  0  0  0  0  0
   -5.1009   -2.6578   -0.8768 O   0  0  0  0  0  0  0  0  0  0  0  0
   -3.5430   -4.3889   -0.3400 C   0  0  0  0  0  0  0  0  0  0  0  0
   -4.4779   -5.4052   -0.5780 C   0  0  0  0  0  0  0  0  0  0  0  0
   -4.1179   -6.7442   -0.4162 C   0  0  0  0  0  0  0  0  0  0  0  0
   -2.8239   -7.0748   -0.0164 C   0  0  0  0  0  0  0  0  0  0  0  0
   -1.8875   -6.0696    0.2225 C   0  0  0  0  0  0  0  0  0  0  0  0
   -2.2432   -4.7284    0.0617 C   0  0  0  0  0  0  0  0  0  0  0  0
   -2.2747   -0.3243   -1.7283 C   0  0  2  0  0  0  0  0  0  0  0  0
   -2.7769   -1.1468   -2.8111 O   0  0  0  0  0  0  0  0  0  0  0  0
   -0.7821   -0.7446   -1.5416 C   0  0  0  0  0  0  0  0  0  0  0  0
    0.2471    0.3918   -1.3449 C   0  0  2  0  0  0  0  0  0  0  0  0
    1.2681   -0.0723   -0.4350 O   0  0  0  0  0  0  0  0  0  0  0  0
    2.2415   -0.8489   -1.0012 C   0  0  0  0  0  0  0  0  0  0  0  0
    2.1956   -1.3070   -2.1373 O   0  0  0  0  0  0  0  0  0  0  0  0
    3.3727   -1.1386   -0.0029 C   0  0  2  0  0  0  0  0  0  0  0  0
    3.3421   -0.3461    1.1878 O   0  0  0  0  0  0  0  0  0  0  0  0
    4.7598   -1.0685   -0.7155 C   0  0  1  0  0  0  0  0  0  0  0  0
    5.5204    0.1720   -0.5154 N   0  0  0  0  0  0  0  0  0  0  0  0
    4.9981    1.4083   -0.8098 C   0  0  0  0  0  0  0  0  0  0  0  0
    3.8109    1.5751   -1.0625 O   0  0  0  0  0  0  0  0  0  0  0  0
    5.9427    2.5572   -0.8054 C   0  0  0  0  0  0  0  0  0  0  0  0
    7.1037    2.5625   -0.0212 C   0  0  0  0  0  0  0  0  0  0  0  0
    7.9575    3.6678   -0.0475 C   0  0  0  0  0  0  0  0  0  0  0  0
    7.6526    4.7693   -0.8472 C   0  0  0  0  0  0  0  0  0  0  0  0
    6.4901    4.7744   -1.6171 C   0  0  0  0  0  0  0  0  0  0  0  0
    5.6333    3.6729   -1.5936 C   0  0  0  0  0  0  0  0  0  0  0  0
    5.6437   -2.2327   -0.2758 C   0  0  0  0  0  0  0  0  0  0  0  0
    6.0867   -3.1774   -1.2138 C   0  0  0  0  0  0  0  0  0  0  0  0
    6.9021   -4.2392   -0.8181 C   0  0  0  0  0  0  0  0  0  0  0  0
    7.2850   -4.3680    0.5157 C   0  0  0  0  0  0  0  0  0  0  0  0
    6.8543   -3.4357    1.4572 C   0  0  0  0  0  0  0  0  0  0  0  0
    6.0396   -2.3731    1.0651 C   0  0  0  0  0  0  0  0  0  0  0  0
   -0.3812    1.6691   -0.8063 C   0  0  0  0  0  0  0  0  0  0  0  0
    0.5191    2.5103    0.0673 C   0  0  0  0  0  0  0  0  0  0  0  0
   -1.6684    1.9919   -1.1192 C   0  0  0  0  0  0  0  0  0  0  0  0
   -2.3993    1.1615   -2.2004 C   0  0  0  0  0  0  0  0  0  0  0  0
   -1.7092    1.4169   -3.5816 C   0  0  0  0  0  0  0  0  0  0  0  0
   -3.8804    1.4978   -2.5364 C   0  0  0  0  0  0  0  0  0  0  0  0
   -2.7352   -0.8967    2.1473 C   0  0  2  0  0  0  0  0  0  0  0  0
   -1.4720   -1.6349    2.0387 O   0  0  0  0  0  0  0  0  0  0  0  0
   -0.3560   -0.9924    2.4877 C   0  0  0  0  0  0  0  0  0  0  0  0
    0.7894   -1.9522    2.5510 C   0  0  0  0  0  0  0  0  0  0  0  0
   -0.3139    0.1828    2.8205 O   0  0  0  0  0  0  0  0  0  0  0  0
   -3.9224   -1.8442    2.4823 C   0  0  0  0  0  0  0  0  0  0  0  0
   -4.1378   -1.2423    3.7686 O   0  0  0  0  0  0  0  0  0  0  0  0
   -3.0231   -0.3355    3.5902 C   0  0  2  0  0  0  0  0  0  0  0  0
   -3.4733    1.0950    3.8078 C   0  0  0  0  0  0  0  0  0  0  0  0
   -3.2338    1.9641    2.5805 C   0  0  2  0  0  0  0  0  0  0  0  0
   -3.8635    3.2185    2.8236 O   0  0  0  0  0  0  0  0  0  0  0  0
   -3.3636    7.3345   -1.1706 H   0  0  0  0  0  0  0  0  0  0  0  0
   -2.3367    6.5229   -2.3746 H   0  0  0  0  0  0  0  0  0  0  0  0
   -4.0667    6.0698   -2.1950 H   0  0  0  0  0  0  0  0  0  0  0  0
   -1.8604    3.3840    0.5311 H   0  0  0  0  0  0  0  0  0  0  0  0
   -5.4782    0.2345    2.1863 H   0  0  0  0  0  0  0  0  0  0  0  0
   -5.8814    1.8439    1.6740 H   0  0  0  0  0  0  0  0  0  0  0  0
   -5.6910    0.5740    0.4727 H   0  0  0  0  0  0  0  0  0  0  0  0
   -1.8665    0.4783    0.8166 H   0  0  0  0  0  0  0  0  0  0  0  0
   -4.2184   -0.5420   -0.6965 H   0  0  0  0  0  0  0  0  0  0  0  0
   -5.4915   -5.1589   -0.8906 H   0  0  0  0  0  0  0  0  0  0  0  0
   -4.8479   -7.5287   -0.6021 H   0  0  0  0  0  0  0  0  0  0  0  0
   -2.5454   -8.1186    0.1093 H   0  0  0  0  0  0  0  0  0  0  0  0
   -0.8793   -6.3320    0.5344 H   0  0  0  0  0  0  0  0  0  0  0  0
   -1.4960   -3.9637    0.2559 H   0  0  0  0  0  0  0  0  0  0  0  0
   -2.6832   -2.0787   -2.5501 H   0  0  0  0  0  0  0  0  0  0  0  0
   -0.4585   -1.3250   -2.4171 H   0  0  0  0  0  0  0  0  0  0  0  0
   -0.6909   -1.4566   -0.7127 H   0  0  0  0  0  0  0  0  0  0  0  0
    0.7455    0.6502   -2.2859 H   0  0  0  0  0  0  0  0  0  0  0  0
    3.1708   -2.1682    0.3196 H   0  0  0  0  0  0  0  0  0  0  0  0
    3.3145    0.5801    0.8715 H   0  0  0  0  0  0  0  0  0  0  0  0
    4.6238   -1.1478   -1.8012 H   0  0  0  0  0  0  0  0  0  0  0  0
    6.5270    0.0716   -0.5409 H   0  0  0  0  0  0  0  0  0  0  0  0
    7.3458    1.7317    0.6354 H   0  0  0  0  0  0  0  0  0  0  0  0
    8.8571    3.6755    0.5637 H   0  0  0  0  0  0  0  0  0  0  0  0
    8.3174    5.6299   -0.8634 H   0  0  0  0  0  0  0  0  0  0  0  0
    6.2483    5.6373   -2.2330 H   0  0  0  0  0  0  0  0  0  0  0  0
    4.7254    3.6860   -2.1936 H   0  0  0  0  0  0  0  0  0  0  0  0
    5.8001   -3.0965   -2.2608 H   0  0  0  0  0  0  0  0  0  0  0  0
    7.2392   -4.9676   -1.5516 H   0  0  0  0  0  0  0  0  0  0  0  0
    7.9194   -5.1961    0.8216 H   0  0  0  0  0  0  0  0  0  0  0  0
    7.1520   -3.5365    2.4979 H   0  0  0  0  0  0  0  0  0  0  0  0
    5.7100   -1.6527    1.8129 H   0  0  0  0  0  0  0  0  0  0  0  0
    0.6162    2.0686    1.0628 H   0  0  0  0  0  0  0  0  0  0  0  0
    1.5139    2.5855   -0.3816 H   0  0  0  0  0  0  0  0  0  0  0  0
    0.1722    3.5411    0.1755 H   0  0  0  0  0  0  0  0  0  0  0  0
   -0.6611    1.1286   -3.6334 H   0  0  0  0  0  0  0  0  0  0  0  0
   -1.7575    2.4820   -3.8417 H   0  0  0  0  0  0  0  0  0  0  0  0
   -2.2062    0.8636   -4.3879 H   0  0  0  0  0  0  0  0  0  0  0  0
   -4.0138    2.5625   -2.7559 H   0  0  0  0  0  0  0  0  0  0  0  0
   -4.2169    0.9547   -3.4292 H   0  0  0  0  0  0  0  0  0  0  0  0
   -4.5877    1.2133   -1.7600 H   0  0  0  0  0  0  0  0  0  0  0  0
    0.5436   -2.7732    3.2296 H   0  0  0  0  0  0  0  0  0  0  0  0
    1.6720   -1.4391    2.9402 H   0  0  0  0  0  0  0  0  0  0  0  0
    1.0059   -2.3373    1.5526 H   0  0  0  0  0  0  0  0  0  0  0  0
   -3.6538   -2.9005    2.5906 H   0  0  0  0  0  0  0  0  0  0  0  0
   -4.8115   -1.7791    1.8523 H   0  0  0  0  0  0  0  0  0  0  0  0
   -2.2529   -0.5973    4.3277 H   0  0  0  0  0  0  0  0  0  0  0  0
   -4.5287    1.1407    4.1067 H   0  0  0  0  0  0  0  0  0  0  0  0
   -2.9349    1.5293    4.6606 H   0  0  0  0  0  0  0  0  0  0  0  0
   -2.1603    2.1616    2.4763 H   0  0  0  0  0  0  0  0  0  0  0  0
   -3.4137    3.6557    3.5685 H   0  0  0  0  0  0  0  0  0  0  0  0
  1  2  1  0
  2  3  2  0
  2  4  1  0
  4  5  1  0
  5  6  1  0
  6  7  2  0
  6  8  1  0
  8  9  1  1
  8 10  1  0
 10 11  1  0
 11 12  1  0
 12 13  1  0
 13 14  2  0
 13 15  1  0
 15 16  2  0
 16 17  1  0
 17 18  2  0
 18 19  1  0
 19 20  2  0
 11 21  1  0
 21 22  1  6
 21 23  1  0
 23 24  1  0
 24 25  1  0
 25 26  1  0
 26 27  2  0
 26 28  1  0
 28 29  1  0
 28 30  1  0
 30 31  1  0
 31 32  1  0
 32 33  2  0
 32 34  1  0
 34 35  2  0
 35 36  1  0
 36 37  2  0
 37 38  1  0
 38 39  2  0
 30 40  1  0
 40 41  2  0
 41 42  1  0
 42 43  2  0
 43 44  1  0
 44 45  2  0
 24 46  1  0
 46 47  1  0
 46 48  2  0
 48 49  1  0
 49 50  1  0
 49 51  1  0
 10 52  1  0
 52 53  1  1
 53 54  1  0
 54 55  1  0
 54 56  2  0
 52 57  1  0
 57 58  1  0
 58 59  1  0
 59 60  1  0
 60 61  1  0
 61 62  1  0
 48  5  1  0
 59 52  1  0
 61  8  1  0
 20 15  1  0
 49 21  1  0
 39 34  1  0
 45 40  1  0
  1 63  1  0
  1 64  1  0
  1 65  1  0
  5 66  1  1
  9 67  1  0
  9 68  1  0
  9 69  1  0
 10 70  1  6
 11 71  1  6
 16 72  1  0
 17 73  1  0
 18 74  1  0
 19 75  1  0
 20 76  1  0
 22 77  1  0
 23 78  1  0
 23 79  1  0
 24 80  1  6
 28 81  1  1
 29 82  1  0
 30 83  1  6
 31 84  1  0
 35 85  1  0
 36 86  1  0
 37 87  1  0
 38 88  1  0
 39 89  1  0
 41 90  1  0
 42 91  1  0
 43 92  1  0
 44 93  1  0
 45 94  1  0
 47 95  1  0
 47 96  1  0
 47 97  1  0
 50 98  1  0
 50 99  1  0
 50100  1  0
 51101  1  0
 51102  1  0
 51103  1  0
 55104  1  0
 55105  1  0
 55106  1  0
 57107  1  0
 57108  1  0
 59109  1  1
 60110  1  0
 60111  1  0
 61112  1  6
 62113  1  0
M  END
