
     RDKit          3D

 48 51  0  0  0  0  0  0  0  0999 V2000
    4.9168   -1.1239    0.6786 C   0  0  0  0  0  0  0  0  0  0  0  0
    4.0785   -1.2087   -0.3626 C   0  0  0  0  0  0  0  0  0  0  0  0
    3.2030   -0.1152   -0.9389 C   0  0  1  0  0  0  0  0  0  0  0  0
    1.7788   -0.6394   -1.2975 C   0  0  0  0  0  0  0  0  0  0  0  0
    0.7070    0.1525   -0.6371 N   0  0  0  0  0  0  0  0  0  0  0  0
    0.7876    1.5460   -1.1277 C   0  0  0  0  0  0  0  0  0  0  0  0
    2.1871    2.1486   -0.9403 C   0  0  0  0  0  0  0  0  0  0  0  0
    3.0375    1.1805   -0.0977 C   0  0  1  0  0  0  0  0  0  0  0  0
    2.2210    0.9160    1.1846 C   0  0  0  0  0  0  0  0  0  0  0  0
    0.9601    0.0859    0.8373 C   0  0  1  0  0  0  0  0  0  0  0  0
   -0.2832    0.4386    1.7216 C   0  0  2  0  0  0  0  0  0  0  0  0
    0.1290    0.7057    3.0740 O   0  0  0  0  0  0  0  0  0  0  0  0
   -1.3048   -0.6941    1.7637 C   0  0  0  0  0  0  0  0  0  0  0  0
   -1.1299   -1.7144    2.7123 C   0  0  0  0  0  0  0  0  0  0  0  0
   -2.0418   -2.7470    2.7696 C   0  0  0  0  0  0  0  0  0  0  0  0
   -3.1068   -2.8471    1.9545 N   0  0  0  0  0  0  0  0  0  0  0  0
   -3.2843   -1.8907    1.0313 C   0  0  0  0  0  0  0  0  0  0  0  0
   -4.3839   -2.0113    0.1966 C   0  0  0  0  0  0  0  0  0  0  0  0
   -4.6560   -1.0772   -0.8033 C   0  0  0  0  0  0  0  0  0  0  0  0
   -3.8116    0.0081   -0.9906 C   0  0  0  0  0  0  0  0  0  0  0  0
   -4.1719    0.8486   -2.0063 O   0  0  0  0  0  0  0  0  0  0  0  0
   -3.2464    1.8703   -2.3543 C   0  0  0  0  0  0  0  0  0  0  0  0
   -2.7056    0.1547   -0.1517 C   0  0  0  0  0  0  0  0  0  0  0  0
   -2.4143   -0.7829    0.8748 C   0  0  0  0  0  0  0  0  0  0  0  0
    5.5036   -1.9863    0.9829 H   0  0  0  0  0  0  0  0  0  0  0  0
    5.0579   -0.2120    1.2477 H   0  0  0  0  0  0  0  0  0  0  0  0
    4.0355   -2.1635   -0.8882 H   0  0  0  0  0  0  0  0  0  0  0  0
    3.6848    0.1680   -1.8864 H   0  0  0  0  0  0  0  0  0  0  0  0
    1.6358   -0.5955   -2.3855 H   0  0  0  0  0  0  0  0  0  0  0  0
    1.6559   -1.6986   -1.0364 H   0  0  0  0  0  0  0  0  0  0  0  0
    0.0448    2.1711   -0.6193 H   0  0  0  0  0  0  0  0  0  0  0  0
    0.5116    1.5773   -2.1892 H   0  0  0  0  0  0  0  0  0  0  0  0
    2.1099    3.1220   -0.4414 H   0  0  0  0  0  0  0  0  0  0  0  0
    2.6607    2.3223   -1.9139 H   0  0  0  0  0  0  0  0  0  0  0  0
    4.0034    1.6409    0.1357 H   0  0  0  0  0  0  0  0  0  0  0  0
    1.9522    1.8802    1.6334 H   0  0  0  0  0  0  0  0  0  0  0  0
    2.8195    0.3786    1.9277 H   0  0  0  0  0  0  0  0  0  0  0  0
    1.2062   -0.9579    1.0853 H   0  0  0  0  0  0  0  0  0  0  0  0
   -0.7599    1.3630    1.3824 H   0  0  0  0  0  0  0  0  0  0  0  0
    0.3288    1.6548    3.1293 H   0  0  0  0  0  0  0  0  0  0  0  0
   -0.2949   -1.6992    3.4064 H   0  0  0  0  0  0  0  0  0  0  0  0
   -1.9372   -3.5459    3.4974 H   0  0  0  0  0  0  0  0  0  0  0  0
   -5.0499   -2.8613    0.3252 H   0  0  0  0  0  0  0  0  0  0  0  0
   -5.5265   -1.2079   -1.4406 H   0  0  0  0  0  0  0  0  0  0  0  0
   -3.1438    2.5996   -1.5441 H   0  0  0  0  0  0  0  0  0  0  0  0
   -3.6432    2.3975   -3.2273 H   0  0  0  0  0  0  0  0  0  0  0  0
   -2.2748    1.4489   -2.6332 H   0  0  0  0  0  0  0  0  0  0  0  0
   -2.0462    1.0002   -0.2912 H   0  0  0  0  0  0  0  0  0  0  0  0
  1  2  2  0
  2  3  1  0
  3  4  1  0
  4  5  1  0
  5  6  1  0
  6  7  1  0
  7  8  1  0
  8  9  1  0
  9 10  1  0
 10 11  1  0
 11 12  1  0
 11 13  1  0
 13 14  2  0
 14 15  1  0
 15 16  2  0
 16 17  1  0
 17 18  2  0
 18 19  1  0
 19 20  2  0
 20 21  1  0
 21 22  1  0
 20 23  1  0
 23 24  2  0
  8  3  1  0
 24 13  1  0
 10  5  1  0
 24 17  1  0
  1 25  1  0
  1 26  1  0
  2 27  1  0
  3 28  1  6
  4 29  1  0
  4 30  1  0
  6 31  1  0
  6 32  1  0
  7 33  1  0
  7 34  1  0
  8 35  1  1
  9 36  1  0
  9 37  1  0
 10 38  1  1
 11 39  1  6
 12 40  1  0
 14 41  1  0
 15 42  1  0
 18 43  1  0
 19 44  1  0
 22 45  1  0
 22 46  1  0
 22 47  1  0
 23 48  1  0
M  END
