
     RDKit          3D

 25 26  0  0  0  0  0  0  0  0999 V2000
   -1.3802    3.1979    0.8962 C   0  0  0  0  0  0  0  0  0  0  0  0
   -1.7505    2.0429    0.1576 O   0  0  0  0  0  0  0  0  0  0  0  0
   -0.8420    1.0162    0.0715 C   0  0  0  0  0  0  0  0  0  0  0  0
    0.4287    1.0339    0.6658 C   0  0  0  0  0  0  0  0  0  0  0  0
    1.2868   -0.0591    0.5239 C   0  0  0  0  0  0  0  0  0  0  0  0
    2.6120   -0.0830    1.1228 C   0  0  0  0  0  0  0  0  0  0  0  0
    3.3915   -1.1556    0.9548 C   0  0  0  0  0  0  0  0  0  0  0  0
    2.9621   -2.3320    0.1786 C   0  0  0  0  0  0  0  0  0  0  0  0
    3.7037   -3.2984    0.0453 O   0  0  0  0  0  0  0  0  0  0  0  0
    1.6934   -2.2846   -0.3827 O   0  0  0  0  0  0  0  0  0  0  0  0
    0.8612   -1.1594   -0.2131 C   0  0  0  0  0  0  0  0  0  0  0  0
   -0.3953   -1.2021   -0.8131 C   0  0  0  0  0  0  0  0  0  0  0  0
   -1.2565   -0.1113   -0.6737 C   0  0  0  0  0  0  0  0  0  0  0  0
   -2.5146   -0.0427   -1.2197 O   0  0  0  0  0  0  0  0  0  0  0  0
   -2.9669   -1.1571   -1.9760 C   0  0  0  0  0  0  0  0  0  0  0  0
   -2.2167    3.9024    0.8572 H   0  0  0  0  0  0  0  0  0  0  0  0
   -1.2009    2.9533    1.9483 H   0  0  0  0  0  0  0  0  0  0  0  0
   -0.5102    3.6903    0.4495 H   0  0  0  0  0  0  0  0  0  0  0  0
    0.7651    1.8895    1.2413 H   0  0  0  0  0  0  0  0  0  0  0  0
    2.9507    0.7711    1.6987 H   0  0  0  0  0  0  0  0  0  0  0  0
    4.3844   -1.2132    1.3840 H   0  0  0  0  0  0  0  0  0  0  0  0
   -0.6684   -2.0880   -1.3744 H   0  0  0  0  0  0  0  0  0  0  0  0
   -3.0254   -2.0577   -1.3559 H   0  0  0  0  0  0  0  0  0  0  0  0
   -2.3347   -1.3209   -2.8548 H   0  0  0  0  0  0  0  0  0  0  0  0
   -3.9772   -0.9323   -2.3311 H   0  0  0  0  0  0  0  0  0  0  0  0
  1  2  1  0
  2  3  1  0
  3  4  2  0
  4  5  1  0
  5  6  1  0
  6  7  2  0
  7  8  1  0
  8  9  2  0
  8 10  1  0
 10 11  1  0
 11 12  1  0
 12 13  2  0
 13 14  1  0
 14 15  1  0
 13  3  1  0
 11  5  2  0
  1 16  1  0
  1 17  1  0
  1 18  1  0
  4 19  1  0
  6 20  1  0
  7 21  1  0
 12 22  1  0
 15 23  1  0
 15 24  1  0
 15 25  1  0
M  END
