
     RDKit          3D

 24 26  0  0  0  0  0  0  0  0999 V2000
    1.7377    2.2703   -0.1245 C   0  0  0  0  0  0  0  0  0  0  0  0
    0.8260    1.6491   -1.0321 O   0  0  0  0  0  0  0  0  0  0  0  0
    0.4013    0.4389   -0.5214 C   0  0  0  0  0  0  0  0  0  0  0  0
    1.2030   -0.7186   -0.6311 C   0  0  0  0  0  0  0  0  0  0  0  0
    2.4813   -1.0337   -1.1699 C   0  0  0  0  0  0  0  0  0  0  0  0
    2.6828   -2.3751   -0.9420 C   0  0  0  0  0  0  0  0  0  0  0  0
    1.6135   -2.9167   -0.3037 O   0  0  0  0  0  0  0  0  0  0  0  0
    0.7085   -1.9155   -0.1225 C   0  0  0  0  0  0  0  0  0  0  0  0
   -0.5371   -2.0588    0.4790 C   0  0  0  0  0  0  0  0  0  0  0  0
   -1.3156   -0.8995    0.5353 C   0  0  0  0  0  0  0  0  0  0  0  0
   -2.5926   -1.0385    1.1282 O   0  0  0  0  0  0  0  0  0  0  0  0
   -3.4669    0.0332    1.2367 C   0  0  0  0  0  0  0  0  0  0  0  0
   -4.5725   -0.0687    1.7546 O   0  0  0  0  0  0  0  0  0  0  0  0
   -3.0037    1.3203    0.6947 C   0  0  0  0  0  0  0  0  0  0  0  0
   -1.7995    1.4705    0.1359 C   0  0  0  0  0  0  0  0  0  0  0  0
   -0.8861    0.3361    0.0426 C   0  0  0  0  0  0  0  0  0  0  0  0
    1.3070    2.3580    0.8793 H   0  0  0  0  0  0  0  0  0  0  0  0
    2.6881    1.7289   -0.0850 H   0  0  0  0  0  0  0  0  0  0  0  0
    1.9403    3.2799   -0.4944 H   0  0  0  0  0  0  0  0  0  0  0  0
    3.1666   -0.3613   -1.6658 H   0  0  0  0  0  0  0  0  0  0  0  0
    3.4894   -3.0603   -1.1638 H   0  0  0  0  0  0  0  0  0  0  0  0
   -0.8813   -3.0116    0.8603 H   0  0  0  0  0  0  0  0  0  0  0  0
   -3.7030    2.1438    0.7735 H   0  0  0  0  0  0  0  0  0  0  0  0
   -1.4872    2.4295   -0.2638 H   0  0  0  0  0  0  0  0  0  0  0  0
  1  2  1  0
  2  3  1  0
  3  4  2  0
  4  5  1  0
  5  6  2  0
  6  7  1  0
  7  8  1  0
  8  9  2  0
  9 10  1  0
 10 11  1  0
 11 12  1  0
 12 13  2  0
 12 14  1  0
 14 15  2  0
 15 16  1  0
 16  3  1  0
  8  4  1  0
 16 10  2  0
  1 17  1  0
  1 18  1  0
  1 19  1  0
  5 20  1  0
  6 21  1  0
  9 22  1  0
 14 23  1  0
 15 24  1  0
M  END
