
     RDKit          3D

 33 35  0  0  0  0  0  0  0  0999 V2000
    6.2564   -0.8778   -0.2800 C   0  0  0  0  0  0  0  0  0  0  0  0
    5.3553   -0.4523    0.7342 O   0  0  0  0  0  0  0  0  0  0  0  0
    4.0468   -0.2922    0.3721 C   0  0  0  0  0  0  0  0  0  0  0  0
    3.5184   -0.4793   -0.9040 C   0  0  0  0  0  0  0  0  0  0  0  0
    2.1515   -0.2779   -1.1373 C   0  0  0  0  0  0  0  0  0  0  0  0
    1.2927    0.1161   -0.1002 C   0  0  0  0  0  0  0  0  0  0  0  0
   -0.1437    0.3360   -0.3455 C   0  0  0  0  0  0  0  0  0  0  0  0
   -0.5553    1.1387   -1.3395 C   0  0  0  0  0  0  0  0  0  0  0  0
   -1.8538    1.4399   -1.6718 O   0  0  0  0  0  0  0  0  0  0  0  0
   -2.8527    0.8788   -0.9179 C   0  0  0  0  0  0  0  0  0  0  0  0
   -4.1655    1.1935   -1.2690 C   0  0  0  0  0  0  0  0  0  0  0  0
   -5.2192    0.6529   -0.5378 C   0  0  0  0  0  0  0  0  0  0  0  0
   -6.4869    0.9856   -0.9138 O   0  0  0  0  0  0  0  0  0  0  0  0
   -4.9837   -0.1971    0.5388 C   0  0  0  0  0  0  0  0  0  0  0  0
   -3.6700   -0.5074    0.8842 C   0  0  0  0  0  0  0  0  0  0  0  0
   -3.5001   -1.3491    1.9511 O   0  0  0  0  0  0  0  0  0  0  0  0
   -2.6000    0.0295    0.1575 C   0  0  0  0  0  0  0  0  0  0  0  0
   -1.2023   -0.2805    0.4995 C   0  0  0  0  0  0  0  0  0  0  0  0
   -0.9621   -1.0238    1.4470 O   0  0  0  0  0  0  0  0  0  0  0  0
    1.8319    0.2946    1.1787 C   0  0  0  0  0  0  0  0  0  0  0  0
    3.1964    0.0940    1.4092 C   0  0  0  0  0  0  0  0  0  0  0  0
    7.2490   -0.9691    0.1716 H   0  0  0  0  0  0  0  0  0  0  0  0
    6.3233   -0.1375   -1.0840 H   0  0  0  0  0  0  0  0  0  0  0  0
    5.9763   -1.8619   -0.6702 H   0  0  0  0  0  0  0  0  0  0  0  0
    4.1383   -0.7852   -1.7401 H   0  0  0  0  0  0  0  0  0  0  0  0
    1.7657   -0.4451   -2.1409 H   0  0  0  0  0  0  0  0  0  0  0  0
    0.1154    1.6647   -2.0093 H   0  0  0  0  0  0  0  0  0  0  0  0
   -4.3687    1.8554   -2.1062 H   0  0  0  0  0  0  0  0  0  0  0  0
   -7.1167    0.5420   -0.3204 H   0  0  0  0  0  0  0  0  0  0  0  0
   -5.7988   -0.6237    1.1149 H   0  0  0  0  0  0  0  0  0  0  0  0
   -2.5333   -1.4855    2.0809 H   0  0  0  0  0  0  0  0  0  0  0  0
    1.1979    0.5878    2.0131 H   0  0  0  0  0  0  0  0  0  0  0  0
    3.5976    0.2359    2.4101 H   0  0  0  0  0  0  0  0  0  0  0  0
  1  2  1  0
  2  3  1  0
  3  4  1  0
  4  5  2  0
  5  6  1  0
  6  7  1  0
  7  8  2  0
  8  9  1  0
  9 10  1  0
 10 11  2  0
 11 12  1  0
 12 13  1  0
 12 14  2  0
 14 15  1  0
 15 16  1  0
 15 17  2  0
 17 18  1  0
 18 19  2  0
  6 20  2  0
 20 21  1  0
 21  3  2  0
 18  7  1  0
 17 10  1  0
  1 22  1  0
  1 23  1  0
  1 24  1  0
  4 25  1  0
  5 26  1  0
  8 27  1  0
 11 28  1  0
 13 29  1  0
 14 30  1  0
 16 31  1  0
 20 32  1  0
 21 33  1  0
M  END
