
     RDKit          3D

 24 25  0  0  0  0  0  0  0  0999 V2000
   -2.2811   -2.1879    0.3057 C   0  0  0  0  0  0  0  0  0  0  0  0
   -1.3586   -1.0767    0.1788 N   0  0  0  0  0  0  0  0  0  0  0  0
    0.0003   -1.3634    0.0193 C   0  0  0  0  0  0  0  0  0  0  0  0
    0.4719   -2.4958   -0.0214 O   0  0  0  0  0  0  0  0  0  0  0  0
    0.7996   -0.1938   -0.0935 C   0  0  0  0  0  0  0  0  0  0  0  0
    0.2875    1.0673   -0.0498 C   0  0  0  0  0  0  0  0  0  0  0  0
    1.2569    2.0154   -0.1799 N   0  0  0  0  0  0  0  0  0  0  0  0
    2.3743    1.3270   -0.3047 C   0  0  0  0  0  0  0  0  0  0  0  0
    2.1441   -0.0226   -0.2578 N   0  0  0  0  0  0  0  0  0  0  0  0
    3.1389   -1.0597   -0.3628 C   0  0  0  0  0  0  0  0  0  0  0  0
   -1.0574    1.2983    0.1088 N   0  0  0  0  0  0  0  0  0  0  0  0
   -1.5616    2.6587    0.1502 C   0  0  0  0  0  0  0  0  0  0  0  0
   -1.9269    0.2137    0.2289 C   0  0  0  0  0  0  0  0  0  0  0  0
   -3.1437    0.3655    0.3732 O   0  0  0  0  0  0  0  0  0  0  0  0
   -2.8074   -2.1058    1.2624 H   0  0  0  0  0  0  0  0  0  0  0  0
   -1.7803   -3.1580    0.2592 H   0  0  0  0  0  0  0  0  0  0  0  0
   -3.0196   -2.1309   -0.5008 H   0  0  0  0  0  0  0  0  0  0  0  0
    3.3627    1.7515   -0.4297 H   0  0  0  0  0  0  0  0  0  0  0  0
    4.1258   -0.6069   -0.4880 H   0  0  0  0  0  0  0  0  0  0  0  0
    3.1202   -1.6540    0.5541 H   0  0  0  0  0  0  0  0  0  0  0  0
    2.9052   -1.6795   -1.2320 H   0  0  0  0  0  0  0  0  0  0  0  0
   -2.6466    2.6879    0.2803 H   0  0  0  0  0  0  0  0  0  0  0  0
   -1.0952    3.1874    0.9875 H   0  0  0  0  0  0  0  0  0  0  0  0
   -1.3088    3.1622   -0.7883 H   0  0  0  0  0  0  0  0  0  0  0  0
  1  2  1  0
  2  3  1  0
  3  4  2  0
  3  5  1  0
  5  6  2  0
  6  7  1  0
  7  8  2  0
  8  9  1  0
  9 10  1  0
  6 11  1  0
 11 12  1  0
 11 13  1  0
 13 14  2  0
 13  2  1  0
  9  5  1  0
  1 15  1  0
  1 16  1  0
  1 17  1  0
  8 18  1  0
 10 19  1  0
 10 20  1  0
 10 21  1  0
 12 22  1  0
 12 23  1  0
 12 24  1  0
M  END
