
     RDKit          3D

 49 49  0  0  0  0  0  0  0  0999 V2000
    7.6523    2.0915   -0.0018 C   0  0  0  0  0  0  0  0  0  0  0  0
    7.4689    0.9719   -0.8601 O   0  0  0  0  0  0  0  0  0  0  0  0
    6.3827    0.1735   -0.6075 C   0  0  0  0  0  0  0  0  0  0  0  0
    5.4158    0.3829    0.3776 C   0  0  0  0  0  0  0  0  0  0  0  0
    4.3491   -0.5226    0.5317 C   0  0  0  0  0  0  0  0  0  0  0  0
    3.2875   -0.2908    1.5776 C   0  0  0  0  0  0  0  0  0  0  0  0
    2.1120    0.3066    0.9862 N   0  0  0  0  0  0  0  0  0  0  0  0
    0.9882   -0.4370    0.6972 C   0  0  0  0  0  0  0  0  0  0  0  0
    0.8617   -1.6180    0.9984 O   0  0  0  0  0  0  0  0  0  0  0  0
   -0.0658    0.3635   -0.0477 C   0  0  0  0  0  0  0  0  0  0  0  0
   -1.3831   -0.3883   -0.2399 C   0  0  0  0  0  0  0  0  0  0  0  0
   -2.1992   -0.4705    1.0563 C   0  0  0  0  0  0  0  0  0  0  0  0
   -3.4850   -1.2919    0.9138 C   0  0  0  0  0  0  0  0  0  0  0  0
   -4.4934   -0.6639   -0.0075 C   0  0  0  0  0  0  0  0  0  0  0  0
   -5.6601   -0.1424    0.4045 C   0  0  0  0  0  0  0  0  0  0  0  0
   -6.6781    0.4760   -0.5217 C   0  0  0  0  0  0  0  0  0  0  0  0
   -7.9978   -0.2908   -0.4437 C   0  0  0  0  0  0  0  0  0  0  0  0
   -6.8889    1.9475   -0.1668 C   0  0  0  0  0  0  0  0  0  0  0  0
    4.2580   -1.6330   -0.3231 C   0  0  0  0  0  0  0  0  0  0  0  0
    5.2182   -1.8454   -1.3100 C   0  0  0  0  0  0  0  0  0  0  0  0
    6.2659   -0.9444   -1.4415 C   0  0  0  0  0  0  0  0  0  0  0  0
    7.1964   -1.1739   -2.4190 O   0  0  0  0  0  0  0  0  0  0  0  0
    8.5654    2.6065   -0.3156 H   0  0  0  0  0  0  0  0  0  0  0  0
    6.8220    2.7992   -0.0952 H   0  0  0  0  0  0  0  0  0  0  0  0
    7.7888    1.7749    1.0375 H   0  0  0  0  0  0  0  0  0  0  0  0
    5.4670    1.2410    1.0397 H   0  0  0  0  0  0  0  0  0  0  0  0
    3.6506    0.4024    2.3444 H   0  0  0  0  0  0  0  0  0  0  0  0
    3.0410   -1.2316    2.0824 H   0  0  0  0  0  0  0  0  0  0  0  0
    2.2157    1.2145    0.5544 H   0  0  0  0  0  0  0  0  0  0  0  0
    0.3508    0.6004   -1.0343 H   0  0  0  0  0  0  0  0  0  0  0  0
   -0.2406    1.3085    0.4794 H   0  0  0  0  0  0  0  0  0  0  0  0
   -1.1921   -1.3968   -0.6256 H   0  0  0  0  0  0  0  0  0  0  0  0
   -1.9660    0.1416   -1.0020 H   0  0  0  0  0  0  0  0  0  0  0  0
   -2.4438    0.5423    1.4009 H   0  0  0  0  0  0  0  0  0  0  0  0
   -1.5912   -0.9304    1.8442 H   0  0  0  0  0  0  0  0  0  0  0  0
   -3.9212   -1.4270    1.9115 H   0  0  0  0  0  0  0  0  0  0  0  0
   -3.2472   -2.2963    0.5436 H   0  0  0  0  0  0  0  0  0  0  0  0
   -4.2494   -0.6619   -1.0677 H   0  0  0  0  0  0  0  0  0  0  0  0
   -5.9071   -0.1547    1.4651 H   0  0  0  0  0  0  0  0  0  0  0  0
   -6.3184    0.4259   -1.5574 H   0  0  0  0  0  0  0  0  0  0  0  0
   -7.8571   -1.3424   -0.7174 H   0  0  0  0  0  0  0  0  0  0  0  0
   -8.7348    0.1369   -1.1320 H   0  0  0  0  0  0  0  0  0  0  0  0
   -8.4232   -0.2597    0.5658 H   0  0  0  0  0  0  0  0  0  0  0  0
   -5.9497    2.5071   -0.2412 H   0  0  0  0  0  0  0  0  0  0  0  0
   -7.6081    2.4111   -0.8506 H   0  0  0  0  0  0  0  0  0  0  0  0
   -7.2711    2.0655    0.8535 H   0  0  0  0  0  0  0  0  0  0  0  0
    3.4309   -2.3350   -0.2216 H   0  0  0  0  0  0  0  0  0  0  0  0
    5.1494   -2.7040   -1.9710 H   0  0  0  0  0  0  0  0  0  0  0  0
    7.8339   -0.4387   -2.3360 H   0  0  0  0  0  0  0  0  0  0  0  0
  1  2  1  0
  2  3  1  0
  3  4  1  0
  4  5  2  0
  5  6  1  0
  6  7  1  0
  7  8  1  0
  8  9  2  0
  8 10  1  0
 10 11  1  0
 11 12  1  0
 12 13  1  0
 13 14  1  0
 14 15  2  0
 15 16  1  0
 16 17  1  0
 16 18  1  0
  5 19  1  0
 19 20  2  0
 20 21  1  0
 21 22  1  0
 21  3  2  0
  1 23  1  0
  1 24  1  0
  1 25  1  0
  4 26  1  0
  6 27  1  0
  6 28  1  0
  7 29  1  0
 10 30  1  0
 10 31  1  0
 11 32  1  0
 11 33  1  0
 12 34  1  0
 12 35  1  0
 13 36  1  0
 13 37  1  0
 14 38  1  0
 15 39  1  0
 16 40  1  0
 17 41  1  0
 17 42  1  0
 17 43  1  0
 18 44  1  0
 18 45  1  0
 18 46  1  0
 19 47  1  0
 20 48  1  0
 22 49  1  0
M  END
