
     RDKit          3D

 25 25  0  0  0  0  0  0  0  0999 V2000
   -3.0557    1.0106   -0.5125 C   0  0  0  0  0  0  0  0  0  0  0  0
   -2.1739    0.0761   -0.1163 C   0  0  0  0  0  0  0  0  0  0  0  0
   -2.6518   -1.2564    0.3974 C   0  0  0  0  0  0  0  0  0  0  0  0
   -0.6742    0.3435   -0.1694 C   0  0  2  0  0  0  0  0  0  0  0  0
    0.0465   -0.5544   -1.1893 C   0  0  0  0  0  0  0  0  0  0  0  0
    1.5359   -0.3632   -1.1558 C   0  0  0  0  0  0  0  0  0  0  0  0
    2.2115    0.1776   -0.1278 C   0  0  0  0  0  0  0  0  0  0  0  0
    3.6915    0.3957   -0.1241 C   0  0  0  0  0  0  0  0  0  0  0  0
    1.4685    0.5680    1.1116 C   0  0  0  0  0  0  0  0  0  0  0  0
    2.0647    1.0884    2.0531 O   0  0  0  0  0  0  0  0  0  0  0  0
   -0.0051    0.2318    1.2026 C   0  0  0  0  0  0  0  0  0  0  0  0
   -2.7359    1.9804   -0.8828 H   0  0  0  0  0  0  0  0  0  0  0  0
   -4.1273    0.8356   -0.4763 H   0  0  0  0  0  0  0  0  0  0  0  0
   -2.2567   -2.0746   -0.2113 H   0  0  0  0  0  0  0  0  0  0  0  0
   -2.3401   -1.4075    1.4350 H   0  0  0  0  0  0  0  0  0  0  0  0
   -3.7445   -1.3345    0.3733 H   0  0  0  0  0  0  0  0  0  0  0  0
   -0.5257    1.3812   -0.5079 H   0  0  0  0  0  0  0  0  0  0  0  0
   -0.3171   -0.3164   -2.1967 H   0  0  0  0  0  0  0  0  0  0  0  0
   -0.1630   -1.6160   -1.0154 H   0  0  0  0  0  0  0  0  0  0  0  0
    2.0777   -0.6830   -2.0437 H   0  0  0  0  0  0  0  0  0  0  0  0
    3.9219    1.4589   -0.0005 H   0  0  0  0  0  0  0  0  0  0  0  0
    4.1539    0.0629   -1.0595 H   0  0  0  0  0  0  0  0  0  0  0  0
    4.1602   -0.1611    0.6938 H   0  0  0  0  0  0  0  0  0  0  0  0
   -0.4737    0.9341    1.9023 H   0  0  0  0  0  0  0  0  0  0  0  0
   -0.0878   -0.7777    1.6210 H   0  0  0  0  0  0  0  0  0  0  0  0
  1  2  2  0
  2  3  1  0
  2  4  1  0
  4  5  1  0
  5  6  1  0
  6  7  2  0
  7  8  1  0
  7  9  1  0
  9 10  2  0
  9 11  1  0
 11  4  1  0
  1 12  1  0
  1 13  1  0
  3 14  1  0
  3 15  1  0
  3 16  1  0
  4 17  1  6
  5 18  1  0
  5 19  1  0
  6 20  1  0
  8 21  1  0
  8 22  1  0
  8 23  1  0
 11 24  1  0
 11 25  1  0
M  END
