
     RDKit          3D

 29 31  0  0  0  0  0  0  0  0999 V2000
   -2.0608    1.4060   -2.4375 O   0  0  0  0  0  0  0  0  0  0  0  0
   -1.4458    0.8801   -1.5163 C   0  0  0  0  0  0  0  0  0  0  0  0
    0.0221    0.8131   -1.5093 C   0  0  0  0  0  0  0  0  0  0  0  0
    0.6411    0.2209   -0.4776 C   0  0  0  0  0  0  0  0  0  0  0  0
    2.1121    0.1306   -0.4078 C   0  0  0  0  0  0  0  0  0  0  0  0
    2.8771   -0.2518   -1.5205 C   0  0  0  0  0  0  0  0  0  0  0  0
    4.2690   -0.3408   -1.4325 C   0  0  0  0  0  0  0  0  0  0  0  0
    4.9126   -0.0539   -0.2309 C   0  0  0  0  0  0  0  0  0  0  0  0
    4.1663    0.3180    0.8848 C   0  0  0  0  0  0  0  0  0  0  0  0
    2.7746    0.4064    0.7977 C   0  0  0  0  0  0  0  0  0  0  0  0
   -0.0135   -0.3296    0.6138 O   0  0  0  0  0  0  0  0  0  0  0  0
   -1.3859   -0.2924    0.6414 C   0  0  0  0  0  0  0  0  0  0  0  0
   -2.0112   -0.8692    1.7485 C   0  0  0  0  0  0  0  0  0  0  0  0
   -3.4018   -0.8568    1.8263 C   0  0  0  0  0  0  0  0  0  0  0  0
   -4.0564   -1.4085    2.8877 O   0  0  0  0  0  0  0  0  0  0  0  0
   -4.1719   -0.2793    0.8202 C   0  0  0  0  0  0  0  0  0  0  0  0
   -3.5429    0.2940   -0.2814 C   0  0  0  0  0  0  0  0  0  0  0  0
   -4.3489    0.8466   -1.2396 O   0  0  0  0  0  0  0  0  0  0  0  0
   -2.1476    0.2875   -0.3719 C   0  0  0  0  0  0  0  0  0  0  0  0
    0.5364    1.2629   -2.3486 H   0  0  0  0  0  0  0  0  0  0  0  0
    2.3992   -0.4977   -2.4662 H   0  0  0  0  0  0  0  0  0  0  0  0
    4.8499   -0.6387   -2.3019 H   0  0  0  0  0  0  0  0  0  0  0  0
    5.9953   -0.1238   -0.1630 H   0  0  0  0  0  0  0  0  0  0  0  0
    4.6664    0.5394    1.8242 H   0  0  0  0  0  0  0  0  0  0  0  0
    2.2112    0.7008    1.6807 H   0  0  0  0  0  0  0  0  0  0  0  0
   -1.4074   -1.3187    2.5305 H   0  0  0  0  0  0  0  0  0  0  0  0
   -3.4073   -1.7805    3.5073 H   0  0  0  0  0  0  0  0  0  0  0  0
   -5.2559   -0.2761    0.8935 H   0  0  0  0  0  0  0  0  0  0  0  0
   -3.7761    1.2116   -1.9514 H   0  0  0  0  0  0  0  0  0  0  0  0
  1  2  2  0
  2  3  1  0
  3  4  2  0
  4  5  1  0
  5  6  2  0
  6  7  1  0
  7  8  2  0
  8  9  1  0
  9 10  2  0
  4 11  1  0
 11 12  1  0
 12 13  2  0
 13 14  1  0
 14 15  1  0
 14 16  2  0
 16 17  1  0
 17 18  1  0
 17 19  2  0
 19  2  1  0
 10  5  1  0
 19 12  1  0
  3 20  1  0
  6 21  1  0
  7 22  1  0
  8 23  1  0
  9 24  1  0
 10 25  1  0
 13 26  1  0
 15 27  1  0
 16 28  1  0
 18 29  1  0
M  END
