
     RDKit          3D

 43 45  0  0  0  0  0  0  0  0999 V2000
   -1.1810    3.8452    0.9922 C   0  0  0  0  0  0  0  0  0  0  0  0
   -1.4315    2.7157    0.1551 O   0  0  0  0  0  0  0  0  0  0  0  0
   -1.6202    1.5458    0.8360 C   0  0  0  0  0  0  0  0  0  0  0  0
   -1.6499    1.4595    2.0561 O   0  0  0  0  0  0  0  0  0  0  0  0
   -1.8628    0.4109   -0.1430 C   0  0  1  0  0  0  0  0  0  0  0  0
   -0.7174    0.3080   -1.1711 C   0  0  1  0  0  0  0  0  0  0  0  0
    0.5467    0.4098   -0.4698 O   0  0  0  0  0  0  0  0  0  0  0  0
    1.6100    0.8561   -1.1786 C   0  0  0  0  0  0  0  0  0  0  0  0
    1.6020    1.1823   -2.3549 O   0  0  0  0  0  0  0  0  0  0  0  0
    2.8186    0.9078   -0.3124 C   0  0  0  0  0  0  0  0  0  0  0  0
    4.0069    1.4081   -0.8623 C   0  0  0  0  0  0  0  0  0  0  0  0
    5.1663    1.4786   -0.0873 C   0  0  0  0  0  0  0  0  0  0  0  0
    5.1452    1.0496    1.2393 C   0  0  0  0  0  0  0  0  0  0  0  0
    3.9675    0.5489    1.7935 C   0  0  0  0  0  0  0  0  0  0  0  0
    2.8054    0.4763    1.0217 C   0  0  0  0  0  0  0  0  0  0  0  0
   -0.7556   -1.0228   -1.9573 C   0  0  0  0  0  0  0  0  0  0  0  0
   -1.3086   -2.2093   -1.1371 C   0  0  2  0  0  0  0  0  0  0  0  0
   -2.8360   -2.3293   -1.2557 C   0  0  0  0  0  0  0  0  0  0  0  0
   -3.3830   -1.6018   -0.0310 C   0  0  0  0  0  0  0  0  0  0  0  0
   -2.1450   -0.9359    0.5878 C   0  0  1  0  0  0  0  0  0  0  0  0
   -1.0691   -1.9040    0.2792 N   0  0  0  0  0  0  0  0  0  0  0  0
   -1.0780   -3.0865    1.1347 C   0  0  0  0  0  0  0  0  0  0  0  0
   -2.0492    4.0509    1.6260 H   0  0  0  0  0  0  0  0  0  0  0  0
   -1.0087    4.7121    0.3484 H   0  0  0  0  0  0  0  0  0  0  0  0
   -0.2852    3.6821    1.5998 H   0  0  0  0  0  0  0  0  0  0  0  0
   -2.7710    0.7006   -0.6901 H   0  0  0  0  0  0  0  0  0  0  0  0
   -0.7924    1.1487   -1.8732 H   0  0  0  0  0  0  0  0  0  0  0  0
    4.0328    1.7448   -1.8969 H   0  0  0  0  0  0  0  0  0  0  0  0
    6.0850    1.8676   -0.5193 H   0  0  0  0  0  0  0  0  0  0  0  0
    6.0483    1.1043    1.8423 H   0  0  0  0  0  0  0  0  0  0  0  0
    3.9521    0.2130    2.8276 H   0  0  0  0  0  0  0  0  0  0  0  0
    1.8983    0.0787    1.4726 H   0  0  0  0  0  0  0  0  0  0  0  0
   -1.3566   -0.8888   -2.8645 H   0  0  0  0  0  0  0  0  0  0  0  0
    0.2593   -1.2783   -2.2860 H   0  0  0  0  0  0  0  0  0  0  0  0
   -0.8183   -3.1298   -1.4753 H   0  0  0  0  0  0  0  0  0  0  0  0
   -3.2262   -1.8983   -2.1832 H   0  0  0  0  0  0  0  0  0  0  0  0
   -3.1466   -3.3802   -1.2230 H   0  0  0  0  0  0  0  0  0  0  0  0
   -4.1780   -0.8963   -0.2929 H   0  0  0  0  0  0  0  0  0  0  0  0
   -3.8212   -2.3266    0.6660 H   0  0  0  0  0  0  0  0  0  0  0  0
   -2.2841   -0.8021    1.6651 H   0  0  0  0  0  0  0  0  0  0  0  0
   -1.9945   -3.6807    1.0650 H   0  0  0  0  0  0  0  0  0  0  0  0
   -0.2367   -3.7386    0.8750 H   0  0  0  0  0  0  0  0  0  0  0  0
   -0.9378   -2.7959    2.1815 H   0  0  0  0  0  0  0  0  0  0  0  0
  1  2  1  0
  2  3  1  0
  3  4  2  0
  3  5  1  0
  5  6  1  0
  6  7  1  0
  7  8  1  0
  8  9  2  0
  8 10  1  0
 10 11  2  0
 11 12  1  0
 12 13  2  0
 13 14  1  0
 14 15  2  0
  6 16  1  0
 16 17  1  0
 17 18  1  0
 18 19  1  0
 19 20  1  0
 20 21  1  0
 21 22  1  0
 20  5  1  0
 15 10  1  0
 21 17  1  0
  1 23  1  0
  1 24  1  0
  1 25  1  0
  5 26  1  6
  6 27  1  6
 11 28  1  0
 12 29  1  0
 13 30  1  0
 14 31  1  0
 15 32  1  0
 16 33  1  0
 16 34  1  0
 17 35  1  6
 18 36  1  0
 18 37  1  0
 19 38  1  0
 19 39  1  0
 20 40  1  1
 22 41  1  0
 22 42  1  0
 22 43  1  0
M  END
