
     RDKit          3D

 35 37  0  0  0  0  0  0  0  0999 V2000
   -3.7907    3.5151    1.5910 O   0  0  0  0  0  0  0  0  0  0  0  0
   -3.3669    2.2963    1.1507 C   0  0  0  0  0  0  0  0  0  0  0  0
   -4.2537    1.2432    0.9686 C   0  0  0  0  0  0  0  0  0  0  0  0
   -3.7755    0.0163    0.5077 C   0  0  0  0  0  0  0  0  0  0  0  0
   -4.7164   -0.9638    0.3568 O   0  0  0  0  0  0  0  0  0  0  0  0
   -2.4156   -0.1759    0.2242 C   0  0  0  0  0  0  0  0  0  0  0  0
   -1.5393    0.8983    0.4494 C   0  0  0  0  0  0  0  0  0  0  0  0
   -2.0135    2.1338    0.8911 C   0  0  0  0  0  0  0  0  0  0  0  0
   -0.1889    0.8323    0.2173 O   0  0  0  0  0  0  0  0  0  0  0  0
    0.3468   -0.5029    0.2422 C   0  0  2  0  0  0  0  0  0  0  0  0
    1.8521   -0.3881    0.0444 C   0  0  0  0  0  0  0  0  0  0  0  0
    2.6093    0.2328    1.0624 C   0  0  0  0  0  0  0  0  0  0  0  0
    3.9958    0.3662    0.9579 C   0  0  0  0  0  0  0  0  0  0  0  0
    4.6351   -0.1157   -0.1708 C   0  0  0  0  0  0  0  0  0  0  0  0
    5.9897    0.0126   -0.2789 O   0  0  0  0  0  0  0  0  0  0  0  0
    3.9097   -0.7212   -1.1915 C   0  0  0  0  0  0  0  0  0  0  0  0
    4.6025   -1.1652   -2.2852 O   0  0  0  0  0  0  0  0  0  0  0  0
    2.5272   -0.8629   -1.0930 C   0  0  0  0  0  0  0  0  0  0  0  0
   -0.4293   -1.3814   -0.7573 C   0  0  2  0  0  0  0  0  0  0  0  0
   -0.4202   -0.8315   -2.0859 O   0  0  0  0  0  0  0  0  0  0  0  0
   -1.8831   -1.4895   -0.2902 C   0  0  0  0  0  0  0  0  0  0  0  0
   -4.7533    3.4816    1.7198 H   0  0  0  0  0  0  0  0  0  0  0  0
   -5.3135    1.3559    1.1740 H   0  0  0  0  0  0  0  0  0  0  0  0
   -4.3080   -1.7711    0.0092 H   0  0  0  0  0  0  0  0  0  0  0  0
   -1.3279    2.9632    1.0403 H   0  0  0  0  0  0  0  0  0  0  0  0
    0.2065   -0.9199    1.2517 H   0  0  0  0  0  0  0  0  0  0  0  0
    2.1116    0.6253    1.9484 H   0  0  0  0  0  0  0  0  0  0  0  0
    4.5670    0.8458    1.7466 H   0  0  0  0  0  0  0  0  0  0  0  0
    6.2024   -0.3840   -1.1471 H   0  0  0  0  0  0  0  0  0  0  0  0
    3.9586   -1.5007   -2.9329 H   0  0  0  0  0  0  0  0  0  0  0  0
    1.9836   -1.3363   -1.9042 H   0  0  0  0  0  0  0  0  0  0  0  0
    0.0023   -2.3861   -0.8259 H   0  0  0  0  0  0  0  0  0  0  0  0
   -0.5528    0.1329   -1.9904 H   0  0  0  0  0  0  0  0  0  0  0  0
   -1.9483   -2.2204    0.5250 H   0  0  0  0  0  0  0  0  0  0  0  0
   -2.5033   -1.8350   -1.1256 H   0  0  0  0  0  0  0  0  0  0  0  0
  1  2  1  0
  2  3  2  0
  3  4  1  0
  4  5  1  0
  4  6  2  0
  6  7  1  0
  7  8  2  0
  7  9  1  0
  9 10  1  0
 10 11  1  0
 11 12  1  0
 12 13  2  0
 13 14  1  0
 14 15  1  0
 14 16  2  0
 16 17  1  0
 16 18  1  0
 10 19  1  0
 19 20  1  0
 19 21  1  0
  8  2  1  0
 18 11  2  0
 21  6  1  0
  1 22  1  0
  3 23  1  0
  5 24  1  0
  8 25  1  0
 10 26  1  1
 12 27  1  0
 13 28  1  0
 15 29  1  0
 17 30  1  0
 18 31  1  0
 19 32  1  6
 20 33  1  0
 21 34  1  0
 21 35  1  0
M  END
