
     RDKit          3D

 19 20  0  0  0  0  0  0  0  0999 V2000
   -3.7373    1.7416    1.0939 O   0  0  0  0  0  0  0  0  0  0  0  0
   -2.7763    1.1042    0.6790 C   0  0  0  0  0  0  0  0  0  0  0  0
   -2.9732   -0.0811   -0.1743 C   0  0  0  0  0  0  0  0  0  0  0  0
   -1.9536   -0.8036   -0.6481 C   0  0  0  0  0  0  0  0  0  0  0  0
   -0.5903   -0.4202   -0.3196 C   0  0  0  0  0  0  0  0  0  0  0  0
    0.5126   -1.1423   -0.7816 C   0  0  0  0  0  0  0  0  0  0  0  0
    1.7919   -0.7287   -0.4240 C   0  0  0  0  0  0  0  0  0  0  0  0
    2.8594   -1.4782   -0.8274 O   0  0  0  0  0  0  0  0  0  0  0  0
    1.9842    0.4107    0.3567 C   0  0  0  0  0  0  0  0  0  0  0  0
    3.2449    0.8519    0.6358 O   0  0  0  0  0  0  0  0  0  0  0  0
    0.9000    1.1278    0.8379 C   0  0  0  0  0  0  0  0  0  0  0  0
   -0.3799    0.7003    0.4894 C   0  0  0  0  0  0  0  0  0  0  0  0
   -1.4666    1.4518    0.9802 O   0  0  0  0  0  0  0  0  0  0  0  0
   -4.0030   -0.3336   -0.3960 H   0  0  0  0  0  0  0  0  0  0  0  0
   -2.1237   -1.6724   -1.2746 H   0  0  0  0  0  0  0  0  0  0  0  0
    0.3885   -2.0276   -1.3984 H   0  0  0  0  0  0  0  0  0  0  0  0
    3.5122   -1.4357   -0.1038 H   0  0  0  0  0  0  0  0  0  0  0  0
    3.7654    0.7266   -0.1793 H   0  0  0  0  0  0  0  0  0  0  0  0
    1.0446    2.0087    1.4542 H   0  0  0  0  0  0  0  0  0  0  0  0
  1  2  2  0
  2  3  1  0
  3  4  2  0
  4  5  1  0
  5  6  1  0
  6  7  2  0
  7  8  1  0
  7  9  1  0
  9 10  1  0
  9 11  2  0
 11 12  1  0
 12 13  1  0
 13  2  1  0
 12  5  2  0
  3 14  1  0
  4 15  1  0
  6 16  1  0
  8 17  1  0
 10 18  1  0
 11 19  1  0
M  END
