
     RDKit          3D

 24 24  0  0  0  0  0  0  0  0999 V2000
   -4.0087    0.1056    0.5622 C   0  0  0  0  0  0  0  0  0  0  0  0
   -2.7631    0.5982    0.5787 C   0  0  0  0  0  0  0  0  0  0  0  0
   -1.8875    0.7326   -0.6349 C   0  0  0  0  0  0  0  0  0  0  0  0
   -0.5944   -0.0370   -0.4958 C   0  0  0  0  0  0  0  0  0  0  0  0
   -0.5629   -1.4152   -0.7477 C   0  0  0  0  0  0  0  0  0  0  0  0
    0.6247   -2.1320   -0.6066 C   0  0  0  0  0  0  0  0  0  0  0  0
    1.7858   -1.4709   -0.2070 C   0  0  0  0  0  0  0  0  0  0  0  0
    2.9531   -2.1752   -0.0684 O   0  0  0  0  0  0  0  0  0  0  0  0
    1.7810   -0.0948    0.0592 C   0  0  0  0  0  0  0  0  0  0  0  0
    2.9762    0.4505    0.4488 O   0  0  0  0  0  0  0  0  0  0  0  0
    3.0019    1.8422    0.7277 C   0  0  0  0  0  0  0  0  0  0  0  0
    0.5833    0.6137   -0.0855 C   0  0  0  0  0  0  0  0  0  0  0  0
   -4.4757   -0.2398   -0.3549 H   0  0  0  0  0  0  0  0  0  0  0  0
   -4.5890    0.0359    1.4774 H   0  0  0  0  0  0  0  0  0  0  0  0
   -2.3420    0.9320    1.5252 H   0  0  0  0  0  0  0  0  0  0  0  0
   -2.4079    0.3952   -1.5406 H   0  0  0  0  0  0  0  0  0  0  0  0
   -1.6701    1.7958   -0.7963 H   0  0  0  0  0  0  0  0  0  0  0  0
   -1.4686   -1.9359   -1.0514 H   0  0  0  0  0  0  0  0  0  0  0  0
    0.6259   -3.1983   -0.8080 H   0  0  0  0  0  0  0  0  0  0  0  0
    2.7862   -3.1062   -0.2794 H   0  0  0  0  0  0  0  0  0  0  0  0
    2.7496    2.4286   -0.1620 H   0  0  0  0  0  0  0  0  0  0  0  0
    2.3420    2.0898    1.5657 H   0  0  0  0  0  0  0  0  0  0  0  0
    4.0227    2.1063    1.0203 H   0  0  0  0  0  0  0  0  0  0  0  0
    0.5375    1.6788    0.1168 H   0  0  0  0  0  0  0  0  0  0  0  0
  1  2  2  0
  2  3  1  0
  3  4  1  0
  4  5  1  0
  5  6  2  0
  6  7  1  0
  7  8  1  0
  7  9  2  0
  9 10  1  0
 10 11  1  0
  9 12  1  0
 12  4  2  0
  1 13  1  0
  1 14  1  0
  2 15  1  0
  3 16  1  0
  3 17  1  0
  5 18  1  0
  6 19  1  0
  8 20  1  0
 11 21  1  0
 11 22  1  0
 11 23  1  0
 12 24  1  0
M  END
