
     RDKit          3D

 31 33  0  0  0  0  0  0  0  0999 V2000
   -2.6198   -2.5456    0.8615 O   0  0  0  0  0  0  0  0  0  0  0  0
   -1.9079   -1.6032    0.5323 C   0  0  0  0  0  0  0  0  0  0  0  0
   -0.4422   -1.6789    0.6093 C   0  0  0  0  0  0  0  0  0  0  0  0
    0.2846   -0.6170    0.2311 C   0  0  0  0  0  0  0  0  0  0  0  0
    1.7601   -0.6239    0.2940 C   0  0  0  0  0  0  0  0  0  0  0  0
    2.5061   -1.7383   -0.1342 C   0  0  0  0  0  0  0  0  0  0  0  0
    3.9028   -1.7302   -0.0787 C   0  0  0  0  0  0  0  0  0  0  0  0
    4.5544   -0.6048    0.3986 C   0  0  0  0  0  0  0  0  0  0  0  0
    5.9181   -0.5968    0.4524 O   0  0  0  0  0  0  0  0  0  0  0  0
    3.8345    0.5101    0.8161 C   0  0  0  0  0  0  0  0  0  0  0  0
    4.5425    1.5885    1.2712 O   0  0  0  0  0  0  0  0  0  0  0  0
    2.4439    0.5110    0.7651 C   0  0  0  0  0  0  0  0  0  0  0  0
   -0.2571    0.5774   -0.2202 O   0  0  0  0  0  0  0  0  0  0  0  0
   -1.6225    0.6848   -0.3107 C   0  0  0  0  0  0  0  0  0  0  0  0
   -2.1351    1.8941   -0.7790 C   0  0  0  0  0  0  0  0  0  0  0  0
   -3.5135    2.0579   -0.8883 C   0  0  0  0  0  0  0  0  0  0  0  0
   -3.9729    3.2559   -1.3497 O   0  0  0  0  0  0  0  0  0  0  0  0
   -4.3895    1.0337   -0.5376 C   0  0  0  0  0  0  0  0  0  0  0  0
   -3.8714   -0.1720   -0.0706 C   0  0  0  0  0  0  0  0  0  0  0  0
   -4.7761   -1.1445    0.2608 O   0  0  0  0  0  0  0  0  0  0  0  0
   -2.4881   -0.3478    0.0431 C   0  0  0  0  0  0  0  0  0  0  0  0
   -0.0203   -2.6025    0.9840 H   0  0  0  0  0  0  0  0  0  0  0  0
    2.0104   -2.6226   -0.5293 H   0  0  0  0  0  0  0  0  0  0  0  0
    4.4751   -2.5916   -0.4100 H   0  0  0  0  0  0  0  0  0  0  0  0
    6.1450    0.2842    0.8113 H   0  0  0  0  0  0  0  0  0  0  0  0
    3.9115    2.2894    1.5100 H   0  0  0  0  0  0  0  0  0  0  0  0
    1.8838    1.3818    1.0936 H   0  0  0  0  0  0  0  0  0  0  0  0
   -1.4685    2.7047   -1.0595 H   0  0  0  0  0  0  0  0  0  0  0  0
   -4.9444    3.2275   -1.3846 H   0  0  0  0  0  0  0  0  0  0  0  0
   -5.4652    1.1533   -0.6195 H   0  0  0  0  0  0  0  0  0  0  0  0
   -4.2782   -1.9346    0.5724 H   0  0  0  0  0  0  0  0  0  0  0  0
  1  2  2  0
  2  3  1  0
  3  4  2  0
  4  5  1  0
  5  6  1  0
  6  7  2  0
  7  8  1  0
  8  9  1  0
  8 10  2  0
 10 11  1  0
 10 12  1  0
  4 13  1  0
 13 14  1  0
 14 15  2  0
 15 16  1  0
 16 17  1  0
 16 18  2  0
 18 19  1  0
 19 20  1  0
 19 21  2  0
 21  2  1  0
 12  5  2  0
 21 14  1  0
  3 22  1  0
  6 23  1  0
  7 24  1  0
  9 25  1  0
 11 26  1  0
 12 27  1  0
 15 28  1  0
 17 29  1  0
 18 30  1  0
 20 31  1  0
M  END
