
     RDKit          3D

 31 31  0  0  0  0  0  0  0  0999 V2000
    2.8371   -1.2334   -0.6499 C   0  0  0  0  0  0  0  0  0  0  0  0
    2.0978    0.0676   -0.3089 C   0  0  0  0  0  0  0  0  0  0  0  0
    2.9993    0.8964    0.6194 C   0  0  0  0  0  0  0  0  0  0  0  0
    0.6955   -0.1813    0.3292 C   0  0  2  0  0  0  0  0  0  0  0  0
   -0.1088   -1.2461   -0.4497 C   0  0  0  0  0  0  0  0  0  0  0  0
   -1.5786   -1.2492   -0.0491 C   0  0  0  0  0  0  0  0  0  0  0  0
   -2.2697    0.0596   -0.4486 C   0  0  1  0  0  0  0  0  0  0  0  0
   -3.4953    0.3159    0.4294 C   0  0  0  0  0  0  0  0  0  0  0  0
   -1.3042    1.2576   -0.4703 C   0  0  0  0  0  0  0  0  0  0  0  0
   -0.1141    1.1366    0.4860 C   0  0  1  0  0  0  0  0  0  0  0  0
   -0.5744    1.2626    1.8328 O   0  0  0  0  0  0  0  0  0  0  0  0
    2.9273   -1.8795    0.2299 H   0  0  0  0  0  0  0  0  0  0  0  0
    2.3236   -1.7929   -1.4377 H   0  0  0  0  0  0  0  0  0  0  0  0
    3.8471   -1.0229   -1.0189 H   0  0  0  0  0  0  0  0  0  0  0  0
    1.9634    0.6282   -1.2433 H   0  0  0  0  0  0  0  0  0  0  0  0
    3.9834    1.0533    0.1638 H   0  0  0  0  0  0  0  0  0  0  0  0
    2.5838    1.8858    0.8264 H   0  0  0  0  0  0  0  0  0  0  0  0
    3.1508    0.3872    1.5775 H   0  0  0  0  0  0  0  0  0  0  0  0
    0.8712   -0.5949    1.3332 H   0  0  0  0  0  0  0  0  0  0  0  0
   -0.0272   -1.0748   -1.5306 H   0  0  0  0  0  0  0  0  0  0  0  0
    0.3090   -2.2403   -0.2513 H   0  0  0  0  0  0  0  0  0  0  0  0
   -1.6581   -1.4230    1.0311 H   0  0  0  0  0  0  0  0  0  0  0  0
   -2.0915   -2.0898   -0.5321 H   0  0  0  0  0  0  0  0  0  0  0  0
   -2.6444   -0.0596   -1.4748 H   0  0  0  0  0  0  0  0  0  0  0  0
   -4.1860   -0.5331    0.3845 H   0  0  0  0  0  0  0  0  0  0  0  0
   -3.2203    0.4710    1.4769 H   0  0  0  0  0  0  0  0  0  0  0  0
   -4.0380    1.2038    0.0882 H   0  0  0  0  0  0  0  0  0  0  0  0
   -0.9053    1.3557   -1.4890 H   0  0  0  0  0  0  0  0  0  0  0  0
   -1.8548    2.1837   -0.2645 H   0  0  0  0  0  0  0  0  0  0  0  0
    0.5216    2.0097    0.3161 H   0  0  0  0  0  0  0  0  0  0  0  0
   -1.0401    0.4461    2.0761 H   0  0  0  0  0  0  0  0  0  0  0  0
  1  2  1  0
  2  3  1  0
  2  4  1  0
  4  5  1  0
  5  6  1  0
  6  7  1  0
  7  8  1  0
  7  9  1  0
  9 10  1  0
 10 11  1  0
 10  4  1  0
  1 12  1  0
  1 13  1  0
  1 14  1  0
  2 15  1  0
  3 16  1  0
  3 17  1  0
  3 18  1  0
  4 19  1  1
  5 20  1  0
  5 21  1  0
  6 22  1  0
  6 23  1  0
  7 24  1  6
  8 25  1  0
  8 26  1  0
  8 27  1  0
  9 28  1  0
  9 29  1  0
 10 30  1  6
 11 31  1  0
M  END
