
     RDKit          3D

 26 27  0  0  0  0  0  0  0  0999 V2000
   -1.2883   -1.3043    1.2227 C   0  0  0  0  0  0  0  0  0  0  0  0
   -1.3273   -0.7892   -0.1511 N   0  0  0  0  0  0  0  0  0  0  0  0
   -2.6015   -0.0921   -0.3980 C   0  0  0  0  0  0  0  0  0  0  0  0
   -2.3955    1.3558    0.0333 C   0  0  0  0  0  0  0  0  0  0  0  0
   -0.8886    1.5187    0.1941 C   0  0  0  0  0  0  0  0  0  0  0  0
   -0.3016    0.2488   -0.4294 C   0  0  1  0  0  0  0  0  0  0  0  0
    1.1217   -0.1220   -0.0894 C   0  0  0  0  0  0  0  0  0  0  0  0
    1.9697    0.6655    0.6955 C   0  0  0  0  0  0  0  0  0  0  0  0
    3.2821    0.2586    0.9303 C   0  0  0  0  0  0  0  0  0  0  0  0
    3.7171   -0.9256    0.3617 C   0  0  0  0  0  0  0  0  0  0  0  0
    2.9420   -1.7107   -0.4119 N   0  0  0  0  0  0  0  0  0  0  0  0
    1.6710   -1.2911   -0.6193 C   0  0  0  0  0  0  0  0  0  0  0  0
   -1.3926   -0.5246    1.9848 H   0  0  0  0  0  0  0  0  0  0  0  0
   -2.0981   -2.0282    1.3712 H   0  0  0  0  0  0  0  0  0  0  0  0
   -0.3604   -1.8519    1.4155 H   0  0  0  0  0  0  0  0  0  0  0  0
   -3.4599   -0.5577    0.0992 H   0  0  0  0  0  0  0  0  0  0  0  0
   -2.8113   -0.1241   -1.4746 H   0  0  0  0  0  0  0  0  0  0  0  0
   -2.9013    1.5647    0.9823 H   0  0  0  0  0  0  0  0  0  0  0  0
   -2.7902    2.0459   -0.7199 H   0  0  0  0  0  0  0  0  0  0  0  0
   -0.5254    2.4256   -0.3012 H   0  0  0  0  0  0  0  0  0  0  0  0
   -0.6506    1.6065    1.2609 H   0  0  0  0  0  0  0  0  0  0  0  0
   -0.2994    0.4069   -1.5194 H   0  0  0  0  0  0  0  0  0  0  0  0
    1.6320    1.6014    1.1303 H   0  0  0  0  0  0  0  0  0  0  0  0
    3.9512    0.8554    1.5398 H   0  0  0  0  0  0  0  0  0  0  0  0
    4.7310   -1.2827    0.5156 H   0  0  0  0  0  0  0  0  0  0  0  0
    1.0743   -1.9496   -1.2474 H   0  0  0  0  0  0  0  0  0  0  0  0
  1  2  1  0
  2  3  1  0
  3  4  1  0
  4  5  1  0
  5  6  1  0
  6  7  1  0
  7  8  1  0
  8  9  2  0
  9 10  1  0
 10 11  2  0
 11 12  1  0
  6  2  1  0
 12  7  2  0
  1 13  1  0
  1 14  1  0
  1 15  1  0
  3 16  1  0
  3 17  1  0
  4 18  1  0
  4 19  1  0
  5 20  1  0
  5 21  1  0
  6 22  1  6
  8 23  1  0
  9 24  1  0
 10 25  1  0
 12 26  1  0
M  END
