
     RDKit          3D

 34 35  0  0  0  0  0  0  0  0999 V2000
   -0.3115    3.4729   -0.6735 C   0  0  0  0  0  0  0  0  0  0  0  0
   -0.0082    2.1122   -0.9506 O   0  0  0  0  0  0  0  0  0  0  0  0
   -0.9300    1.1679   -0.5808 C   0  0  0  0  0  0  0  0  0  0  0  0
   -2.2325    1.4660   -0.1579 C   0  0  0  0  0  0  0  0  0  0  0  0
   -3.1214    0.4461    0.1994 C   0  0  0  0  0  0  0  0  0  0  0  0
   -2.7185   -0.8853    0.1372 C   0  0  0  0  0  0  0  0  0  0  0  0
   -3.6135   -1.9701    0.5072 C   0  0  0  0  0  0  0  0  0  0  0  0
   -3.1851   -3.2337    0.4393 C   0  0  0  0  0  0  0  0  0  0  0  0
   -1.8245   -3.5807   -0.0016 C   0  0  0  0  0  0  0  0  0  0  0  0
   -1.4603   -4.7498   -0.0494 O   0  0  0  0  0  0  0  0  0  0  0  0
   -0.9952   -2.5262   -0.3536 O   0  0  0  0  0  0  0  0  0  0  0  0
   -1.4233   -1.1781   -0.2905 C   0  0  0  0  0  0  0  0  0  0  0  0
   -0.5111   -0.1745   -0.6634 C   0  0  0  0  0  0  0  0  0  0  0  0
    0.8945   -0.5340   -1.0990 C   0  0  0  0  0  0  0  0  0  0  0  0
    1.8303   -0.7063    0.0698 C   0  0  0  0  0  0  0  0  0  0  0  0
    2.8825    0.0595    0.4214 C   0  0  0  0  0  0  0  0  0  0  0  0
    3.3376    1.2973   -0.3004 C   0  0  0  0  0  0  0  0  0  0  0  0
    3.7097   -0.2877    1.6318 C   0  0  0  0  0  0  0  0  0  0  0  0
   -1.1400    3.8238   -1.2970 H   0  0  0  0  0  0  0  0  0  0  0  0
   -0.5222    3.6262    0.3901 H   0  0  0  0  0  0  0  0  0  0  0  0
    0.5704    4.0692   -0.9268 H   0  0  0  0  0  0  0  0  0  0  0  0
   -2.5913    2.4888   -0.0997 H   0  0  0  0  0  0  0  0  0  0  0  0
   -4.1249    0.7094    0.5249 H   0  0  0  0  0  0  0  0  0  0  0  0
   -4.6204   -1.7376    0.8356 H   0  0  0  0  0  0  0  0  0  0  0  0
   -3.8208   -4.0685    0.7072 H   0  0  0  0  0  0  0  0  0  0  0  0
    1.2623    0.1946   -1.8272 H   0  0  0  0  0  0  0  0  0  0  0  0
    0.8730   -1.4749   -1.6642 H   0  0  0  0  0  0  0  0  0  0  0  0
    1.6063   -1.5819    0.6798 H   0  0  0  0  0  0  0  0  0  0  0  0
    3.2858    2.1621    0.3696 H   0  0  0  0  0  0  0  0  0  0  0  0
    2.7429    1.5345   -1.1840 H   0  0  0  0  0  0  0  0  0  0  0  0
    4.3754    1.1790   -0.6298 H   0  0  0  0  0  0  0  0  0  0  0  0
    3.3500   -1.1898    2.1378 H   0  0  0  0  0  0  0  0  0  0  0  0
    4.7509   -0.4628    1.3416 H   0  0  0  0  0  0  0  0  0  0  0  0
    3.6832    0.5324    2.3568 H   0  0  0  0  0  0  0  0  0  0  0  0
  1  2  1  0
  2  3  1  0
  3  4  1  0
  4  5  2  0
  5  6  1  0
  6  7  1  0
  7  8  2  0
  8  9  1  0
  9 10  2  0
  9 11  1  0
 11 12  1  0
 12 13  1  0
 13 14  1  0
 14 15  1  0
 15 16  2  3
 16 17  1  0
 16 18  1  0
 13  3  2  0
 12  6  2  0
  1 19  1  0
  1 20  1  0
  1 21  1  0
  4 22  1  0
  5 23  1  0
  7 24  1  0
  8 25  1  0
 14 26  1  0
 14 27  1  0
 15 28  1  0
 17 29  1  0
 17 30  1  0
 17 31  1  0
 18 32  1  0
 18 33  1  0
 18 34  1  0
M  END
