
     RDKit          3D

 38 40  0  0  0  0  0  0  0  0999 V2000
    4.2969   -1.0064    0.2700 C   0  0  0  0  0  0  0  0  0  0  0  0
    3.2381   -0.2075    0.4591 C   0  0  0  0  0  0  0  0  0  0  0  0
    3.4100    1.2560    0.5870 C   0  0  0  0  0  0  0  0  0  0  0  0
    4.4662    1.8524    0.6817 O   0  0  0  0  0  0  0  0  0  0  0  0
    2.1788    1.8168    0.5972 O   0  0  0  0  0  0  0  0  0  0  0  0
    1.1760    0.8468    0.2552 C   0  0  2  0  0  0  0  0  0  0  0  0
   -0.0626    1.1472    1.0480 C   0  0  1  0  0  0  0  0  0  0  0  0
   -0.4219    2.5187    1.2832 O   0  0  0  0  0  0  0  0  0  0  0  0
   -1.2936    1.7985    0.4050 C   0  0  1  0  0  0  0  0  0  0  0  0
   -1.2957    2.3960   -0.9706 C   0  0  0  0  0  0  0  0  0  0  0  0
   -2.6332    1.3853    0.9725 C   0  0  0  0  0  0  0  0  0  0  0  0
   -3.1245    0.0561    0.3622 C   0  0  0  0  0  0  0  0  0  0  0  0
   -2.0731   -1.0134    0.5217 C   0  0  0  0  0  0  0  0  0  0  0  0
   -1.2404   -1.4868   -0.4279 C   0  0  0  0  0  0  0  0  0  0  0  0
   -1.3821   -1.2307   -1.9052 C   0  0  0  0  0  0  0  0  0  0  0  0
   -0.0472   -2.3259   -0.0295 C   0  0  0  0  0  0  0  0  0  0  0  0
    1.3258   -1.6982   -0.3413 C   0  0  0  0  0  0  0  0  0  0  0  0
    1.7798   -0.5353    0.5728 C   0  0  1  0  0  0  0  0  0  0  0  0
    4.2062   -2.0828    0.1845 H   0  0  0  0  0  0  0  0  0  0  0  0
    5.3026   -0.5945    0.2111 H   0  0  0  0  0  0  0  0  0  0  0  0
    0.9864    0.9438   -0.8199 H   0  0  0  0  0  0  0  0  0  0  0  0
   -0.1729    0.5096    1.9155 H   0  0  0  0  0  0  0  0  0  0  0  0
   -0.3193    2.8086   -1.2448 H   0  0  0  0  0  0  0  0  0  0  0  0
   -1.5722    1.6523   -1.7213 H   0  0  0  0  0  0  0  0  0  0  0  0
   -2.0201    3.2156   -1.0256 H   0  0  0  0  0  0  0  0  0  0  0  0
   -2.5660    1.2799    2.0634 H   0  0  0  0  0  0  0  0  0  0  0  0
   -3.3764    2.1690    0.7838 H   0  0  0  0  0  0  0  0  0  0  0  0
   -4.0411   -0.2644    0.8702 H   0  0  0  0  0  0  0  0  0  0  0  0
   -3.3920    0.2169   -0.6854 H   0  0  0  0  0  0  0  0  0  0  0  0
   -1.9060   -1.3079    1.5586 H   0  0  0  0  0  0  0  0  0  0  0  0
   -1.2700   -2.1688   -2.4598 H   0  0  0  0  0  0  0  0  0  0  0  0
   -2.3588   -0.8263   -2.1795 H   0  0  0  0  0  0  0  0  0  0  0  0
   -0.6157   -0.5334   -2.2548 H   0  0  0  0  0  0  0  0  0  0  0  0
   -0.1196   -3.2836   -0.5621 H   0  0  0  0  0  0  0  0  0  0  0  0
   -0.0816   -2.5804    1.0375 H   0  0  0  0  0  0  0  0  0  0  0  0
    2.0440   -2.5217   -0.2390 H   0  0  0  0  0  0  0  0  0  0  0  0
    1.3819   -1.3929   -1.3933 H   0  0  0  0  0  0  0  0  0  0  0  0
    1.5935   -0.8087    1.6198 H   0  0  0  0  0  0  0  0  0  0  0  0
  1  2  2  0
  2  3  1  0
  3  4  2  0
  3  5  1  0
  5  6  1  0
  6  7  1  0
  7  8  1  0
  8  9  1  0
  9 10  1  6
  9 11  1  0
 11 12  1  0
 12 13  1  0
 13 14  2  0
 14 15  1  0
 14 16  1  0
 16 17  1  0
 17 18  1  0
 18  2  1  0
 18  6  1  0
  9  7  1  0
  1 19  1  0
  1 20  1  0
  6 21  1  6
  7 22  1  1
 10 23  1  0
 10 24  1  0
 10 25  1  0
 11 26  1  0
 11 27  1  0
 12 28  1  0
 12 29  1  0
 13 30  1  0
 15 31  1  0
 15 32  1  0
 15 33  1  0
 16 34  1  0
 16 35  1  0
 17 36  1  0
 17 37  1  0
 18 38  1  1
M  END
