
     RDKit          3D

 42 43  0  0  0  0  0  0  0  0999 V2000
    0.1957   -1.7479    2.2490 O   0  0  0  0  0  0  0  0  0  0  0  0
    0.6548   -1.0236    1.3795 C   0  0  0  0  0  0  0  0  0  0  0  0
    2.1087   -0.8797    1.1638 C   0  0  0  0  0  0  0  0  0  0  0  0
    2.6615   -0.0658    0.2506 C   0  0  0  0  0  0  0  0  0  0  0  0
    4.1115    0.0784    0.0565 C   0  0  0  0  0  0  0  0  0  0  0  0
    4.6231    1.3425   -0.2838 C   0  0  0  0  0  0  0  0  0  0  0  0
    5.9905    1.5246   -0.5134 C   0  0  0  0  0  0  0  0  0  0  0  0
    6.8443    0.4376   -0.4143 C   0  0  0  0  0  0  0  0  0  0  0  0
    8.1665    0.6072   -0.7042 O   0  0  0  0  0  0  0  0  0  0  0  0
    6.3525   -0.8140   -0.0596 C   0  0  0  0  0  0  0  0  0  0  0  0
    7.2027   -1.8691    0.1087 O   0  0  0  0  0  0  0  0  0  0  0  0
    4.9928   -1.0080    0.1542 C   0  0  0  0  0  0  0  0  0  0  0  0
   -0.0646   -0.2812    0.5066 O   0  0  0  0  0  0  0  0  0  0  0  0
   -1.4915   -0.3457    0.6905 C   0  0  2  0  0  0  0  0  0  0  0  0
   -2.1227    0.3866   -0.4991 C   0  0  0  0  0  0  0  0  0  0  0  0
   -3.6112    0.1833   -0.6403 C   0  0  0  0  0  0  0  0  0  0  0  0
   -4.1291   -1.0628   -1.0353 C   0  0  0  0  0  0  0  0  0  0  0  0
   -5.5086   -1.2578   -1.1599 C   0  0  0  0  0  0  0  0  0  0  0  0
   -6.3693   -0.2010   -0.8927 C   0  0  0  0  0  0  0  0  0  0  0  0
   -7.7269   -0.3293   -0.9965 O   0  0  0  0  0  0  0  0  0  0  0  0
   -5.8631    1.0368   -0.5076 C   0  0  0  0  0  0  0  0  0  0  0  0
   -6.7162    2.0723   -0.2513 O   0  0  0  0  0  0  0  0  0  0  0  0
   -4.4960    1.2388   -0.3779 C   0  0  0  0  0  0  0  0  0  0  0  0
   -1.9486    0.3001    1.9983 C   0  0  0  0  0  0  0  0  0  0  0  0
   -2.9180   -0.0222    2.6667 O   0  0  0  0  0  0  0  0  0  0  0  0
   -1.1853    1.3478    2.3798 O   0  0  0  0  0  0  0  0  0  0  0  0
    2.7091   -1.4865    1.8331 H   0  0  0  0  0  0  0  0  0  0  0  0
    2.0405    0.5590   -0.3875 H   0  0  0  0  0  0  0  0  0  0  0  0
    3.9592    2.2004   -0.3720 H   0  0  0  0  0  0  0  0  0  0  0  0
    6.3768    2.5025   -0.7847 H   0  0  0  0  0  0  0  0  0  0  0  0
    8.4447   -0.1997   -1.1755 H   0  0  0  0  0  0  0  0  0  0  0  0
    8.0103   -1.5021    0.5138 H   0  0  0  0  0  0  0  0  0  0  0  0
    4.6365   -2.0040    0.4001 H   0  0  0  0  0  0  0  0  0  0  0  0
   -1.7924   -1.4009    0.7003 H   0  0  0  0  0  0  0  0  0  0  0  0
   -1.8940    1.4594   -0.4381 H   0  0  0  0  0  0  0  0  0  0  0  0
   -1.6432    0.0556   -1.4307 H   0  0  0  0  0  0  0  0  0  0  0  0
   -3.4586   -1.8930   -1.2494 H   0  0  0  0  0  0  0  0  0  0  0  0
   -5.8833   -2.2299   -1.4631 H   0  0  0  0  0  0  0  0  0  0  0  0
   -7.9238   -1.2507   -1.2374 H   0  0  0  0  0  0  0  0  0  0  0  0
   -7.6063    1.6925   -0.3920 H   0  0  0  0  0  0  0  0  0  0  0  0
   -4.1329    2.2157   -0.0708 H   0  0  0  0  0  0  0  0  0  0  0  0
   -1.5960    1.6335    3.2235 H   0  0  0  0  0  0  0  0  0  0  0  0
  1  2  2  0
  2  3  1  0
  3  4  2  0
  4  5  1  0
  5  6  1  0
  6  7  2  0
  7  8  1  0
  8  9  1  0
  8 10  2  0
 10 11  1  0
 10 12  1  0
  2 13  1  0
 13 14  1  0
 14 15  1  0
 15 16  1  0
 16 17  1  0
 17 18  2  0
 18 19  1  0
 19 20  1  0
 19 21  2  0
 21 22  1  0
 21 23  1  0
 14 24  1  0
 24 25  2  0
 24 26  1  0
 12  5  2  0
 23 16  2  0
  3 27  1  0
  4 28  1  0
  6 29  1  0
  7 30  1  0
  9 31  1  0
 11 32  1  0
 12 33  1  0
 14 34  1  1
 15 35  1  0
 15 36  1  0
 17 37  1  0
 18 38  1  0
 20 39  1  0
 22 40  1  0
 23 41  1  0
 26 42  1  0
M  END
