
     RDKit          3D

 21 22  0  0  0  0  0  0  0  0999 V2000
   -3.1270    0.0917    0.0141 C   0  0  0  0  0  0  0  0  0  0  0  0
   -1.7781   -0.3291   -0.2666 N   0  0  0  0  0  0  0  0  0  0  0  0
   -1.4049   -1.4020   -1.0333 C   0  0  0  0  0  0  0  0  0  0  0  0
   -0.0930   -1.5230   -1.0987 N   0  0  0  0  0  0  0  0  0  0  0  0
    0.3801   -0.4907   -0.3472 C   0  0  0  0  0  0  0  0  0  0  0  0
   -0.6317    0.2612    0.1777 C   0  0  0  0  0  0  0  0  0  0  0  0
   -0.3992    1.3956    0.9988 C   0  0  0  0  0  0  0  0  0  0  0  0
   -1.2729    2.0995    1.4914 O   0  0  0  0  0  0  0  0  0  0  0  0
    0.9431    1.6343    1.1930 N   0  0  0  0  0  0  0  0  0  0  0  0
    2.0074    0.9081    0.6876 C   0  0  0  0  0  0  0  0  0  0  0  0
    3.1529    1.2651    0.9638 O   0  0  0  0  0  0  0  0  0  0  0  0
    1.7044   -0.1913   -0.1095 N   0  0  0  0  0  0  0  0  0  0  0  0
    2.7579   -1.0074   -0.6800 C   0  0  0  0  0  0  0  0  0  0  0  0
   -3.2842    0.0571    1.0950 H   0  0  0  0  0  0  0  0  0  0  0  0
   -3.2600    1.1083   -0.3641 H   0  0  0  0  0  0  0  0  0  0  0  0
   -3.8300   -0.5818   -0.4828 H   0  0  0  0  0  0  0  0  0  0  0  0
   -2.1200   -2.0561   -1.5165 H   0  0  0  0  0  0  0  0  0  0  0  0
    1.1842    2.4261    1.7675 H   0  0  0  0  0  0  0  0  0  0  0  0
    2.6489   -2.0352   -0.3198 H   0  0  0  0  0  0  0  0  0  0  0  0
    3.7489   -0.6408   -0.3993 H   0  0  0  0  0  0  0  0  0  0  0  0
    2.6731   -0.9895   -1.7710 H   0  0  0  0  0  0  0  0  0  0  0  0
  1  2  1  0
  2  3  1  0
  3  4  2  0
  4  5  1  0
  5  6  2  0
  6  7  1  0
  7  8  2  0
  7  9  1  0
  9 10  1  0
 10 11  2  0
 10 12  1  0
 12 13  1  0
  6  2  1  0
 12  5  1  0
  1 14  1  0
  1 15  1  0
  1 16  1  0
  3 17  1  0
  9 18  1  0
 13 19  1  0
 13 20  1  0
 13 21  1  0
M  END
