
     RDKit          3D

176185  0  0  0  0  0  0  0  0999 V2000
    7.9907   -6.4150   -2.0783 C   0  0  0  0  0  0  0  0  0  0  0  0
    8.7329   -5.5292   -1.1847 N   0  0  0  0  0  0  0  0  0  0  0  0
    9.2363   -4.3281   -1.9009 C   0  0  2  0  0  0  0  0  0  0  0  0
   10.3087   -3.5992   -1.0627 C   0  0  0  0  0  0  0  0  0  0  0  0
   11.7756   -4.0179   -1.3014 C   0  0  0  0  0  0  0  0  0  0  0  0
   12.0467   -5.4954   -1.0310 C   0  0  0  0  0  0  0  0  0  0  0  0
   12.2585   -3.6361   -2.7025 C   0  0  0  0  0  0  0  0  0  0  0  0
    8.0665   -3.3485   -2.1402 C   0  0  0  0  0  0  0  0  0  0  0  0
    7.9575   -2.6651   -3.1548 O   0  0  0  0  0  0  0  0  0  0  0  0
    7.1867   -3.2546   -1.0854 N   0  0  0  0  0  0  0  0  0  0  0  0
    5.9362   -2.4940   -1.2039 C   0  0  1  0  0  0  0  0  0  0  0  0
    4.9497   -3.1176   -0.1900 C   0  0  0  0  0  0  0  0  0  0  0  0
    5.3224   -3.9781    0.6118 O   0  0  0  0  0  0  0  0  0  0  0  0
    3.6224   -2.7379   -0.2680 N   0  0  0  0  0  0  0  0  0  0  0  0
    2.6064   -3.5523    0.4274 C   0  0  1  0  0  0  0  0  0  0  0  0
    2.5591   -3.2824    1.9342 C   0  0  0  0  0  0  0  0  0  0  0  0
    2.0997   -4.4927    2.7202 C   0  0  0  0  0  0  0  0  0  0  0  0
    0.8786   -5.0122    2.4125 N   0  0  0  0  0  0  0  0  0  0  0  0
    2.7462   -4.9653    3.6503 O   0  0  0  0  0  0  0  0  0  0  0  0
    1.2127   -3.2682   -0.1645 C   0  0  0  0  0  0  0  0  0  0  0  0
    0.3777   -4.1595   -0.3114 O   0  0  0  0  0  0  0  0  0  0  0  0
    0.9072   -1.9393   -0.3523 N   0  0  0  0  0  0  0  0  0  0  0  0
   -0.4799   -1.5303   -0.6272 C   0  0  1  0  0  0  0  0  0  0  0  0
   -1.1826   -1.6023    0.7568 C   0  0  0  0  0  0  0  0  0  0  0  0
   -0.7336   -1.0306    1.7513 O   0  0  0  0  0  0  0  0  0  0  0  0
   -2.3109   -2.3966    0.8056 N   0  0  0  0  0  0  0  0  0  0  0  0
   -3.1711   -2.3492    1.9779 C   0  0  1  0  0  0  0  0  0  0  0  0
   -4.2846   -1.2837    1.7039 C   0  0  0  0  0  0  0  0  0  0  0  0
   -4.7375   -1.1310    0.5729 O   0  0  0  0  0  0  0  0  0  0  0  0
   -4.7591   -0.6594    2.8349 N   0  0  0  0  0  0  0  0  0  0  0  0
   -6.0084    0.1144    3.0054 C   0  0  2  0  0  0  0  0  0  0  0  0
   -7.0858   -0.7019    3.7715 C   0  0  0  0  0  0  0  0  0  0  0  0
   -8.1384   -0.1934    4.1489 O   0  0  0  0  0  0  0  0  0  0  0  0
   -6.7223   -1.9991    4.1062 N   0  0  0  0  0  0  0  0  0  0  0  0
   -6.7351   -2.3636    5.5235 C   0  0  2  0  0  0  0  0  0  0  0  0
   -5.5464   -1.6102    6.1751 C   0  0  0  0  0  0  0  0  0  0  0  0
   -4.5346   -1.2307    5.5931 O   0  0  0  0  0  0  0  0  0  0  0  0
   -5.7018   -1.3780    7.4937 O   0  0  0  0  0  0  0  0  0  0  0  0
   -6.6428   -3.8471    5.9013 C   0  0  0  0  0  0  0  0  0  0  0  0
   -7.2468   -4.1590    7.1485 C   0  0  0  0  0  0  0  0  0  0  0  0
   -7.1283   -5.4133    7.7343 C   0  0  0  0  0  0  0  0  0  0  0  0
   -7.7348   -5.6075    8.9392 O   0  0  0  0  0  0  0  0  0  0  0  0
   -6.3930   -6.4090    7.1216 C   0  0  0  0  0  0  0  0  0  0  0  0
   -5.8017   -6.1371    5.8883 C   0  0  0  0  0  0  0  0  0  0  0  0
   -5.0433   -7.1209    5.2975 O   0  0  0  0  0  0  0  0  0  0  0  0
   -5.9306   -4.8829    5.2319 C   0  0  0  0  0  0  0  0  0  0  0  0
   -5.3866   -4.7646    3.8618 C   0  0  0  0  0  0  0  0  0  0  0  0
   -4.2838   -3.9428    3.5817 C   0  0  0  0  0  0  0  0  0  0  0  0
   -3.9206   -3.6507    2.2512 C   0  0  0  0  0  0  0  0  0  0  0  0
   -4.5207   -4.3735    1.2081 C   0  0  0  0  0  0  0  0  0  0  0  0
   -5.5387   -5.2837    1.4760 C   0  0  0  0  0  0  0  0  0  0  0  0
   -5.9952   -5.4373    2.7831 C   0  0  0  0  0  0  0  0  0  0  0  0
   -7.0882   -6.2327    3.0153 O   0  0  0  0  0  0  0  0  0  0  0  0
   -6.6408    0.9065    1.8211 C   0  0  2  0  0  0  0  0  0  0  0  0
   -7.4508    0.0512    1.0050 O   0  0  0  0  0  0  0  0  0  0  0  0
   -5.6311    1.6722    0.9703 C   0  0  0  0  0  0  0  0  0  0  0  0
   -5.6579    1.5902   -0.4341 C   0  0  0  0  0  0  0  0  0  0  0  0
   -4.6197    2.1140   -1.2039 C   0  0  0  0  0  0  0  0  0  0  0  0
   -3.5384    2.7230   -0.5707 C   0  0  0  0  0  0  0  0  0  0  0  0
   -3.5608    2.9427    0.8066 C   0  0  0  0  0  0  0  0  0  0  0  0
   -2.2817    3.7773    1.6072 Cl  0  0  0  0  0  0  0  0  0  0  0  0
   -4.6080    2.4267    1.5728 C   0  0  0  0  0  0  0  0  0  0  0  0
   -2.4489    3.0710   -1.3267 O   0  0  0  0  0  0  0  0  0  0  0  0
   -1.4633    2.1070   -1.5078 C   0  0  0  0  0  0  0  0  0  0  0  0
   -1.5374    0.7880   -1.0104 C   0  0  0  0  0  0  0  0  0  0  0  0
   -0.5003   -0.1300   -1.2305 C   0  0  0  0  0  0  0  0  0  0  0  0
    0.5596    0.2799   -2.0472 C   0  0  0  0  0  0  0  0  0  0  0  0
    0.7040    1.6140   -2.4597 C   0  0  0  0  0  0  0  0  0  0  0  0
   -0.3170    2.5292   -2.2018 C   0  0  0  0  0  0  0  0  0  0  0  0
   -0.2873    3.8277   -2.6327 O   0  0  0  0  0  0  0  0  0  0  0  0
    0.7843    4.6261   -2.0961 C   0  0  2  0  0  0  0  0  0  0  0  0
    1.0189    4.3333   -0.7109 O   0  0  0  0  0  0  0  0  0  0  0  0
    1.8649    5.2453    0.0027 C   0  0  2  0  0  0  0  0  0  0  0  0
    1.0850    5.7672    1.2189 C   0  0  0  0  0  0  0  0  0  0  0  0
   -0.1524    6.3597    0.8459 O   0  0  0  0  0  0  0  0  0  0  0  0
    2.5115    6.3733   -0.8245 C   0  0  1  0  0  0  0  0  0  0  0  0
    3.6846    5.8055   -1.4513 O   0  0  0  0  0  0  0  0  0  0  0  0
    1.6317    6.9601   -1.9351 C   0  0  2  0  0  0  0  0  0  0  0  0
    1.2525    8.3038   -1.6046 O   0  0  0  0  0  0  0  0  0  0  0  0
    0.3989    6.1119   -2.2594 C   0  0  1  0  0  0  0  0  0  0  0  0
    0.0080    6.4391   -3.6098 O   0  0  0  0  0  0  0  0  0  0  0  0
   -1.3576    6.8603   -3.6986 C   0  0  1  0  0  0  0  0  0  0  0  0
   -1.6559    7.1839   -5.1670 C   0  0  0  0  0  0  0  0  0  0  0  0
   -3.1627    7.0970   -5.4979 C   0  0  2  0  0  0  0  0  0  0  0  0
   -3.4958    5.7437   -6.1500 C   0  0  0  0  0  0  0  0  0  0  0  0
   -3.4815    8.1445   -6.4992 N   0  0  0  0  0  0  0  0  0  0  0  0
   -3.9983    7.3166   -4.2059 C   0  0  2  0  0  0  0  0  0  0  0  0
   -3.7606    8.6664   -3.7587 O   0  0  0  0  0  0  0  0  0  0  0  0
   -3.6043    6.2757   -3.1271 C   0  0  2  0  0  0  0  0  0  0  0  0
   -3.8758    6.7233   -1.6948 C   0  0  0  0  0  0  0  0  0  0  0  0
   -2.2401    5.8536   -3.2300 O   0  0  0  0  0  0  0  0  0  0  0  0
    1.8616    2.0243   -3.1013 O   0  0  0  0  0  0  0  0  0  0  0  0
    3.0239    1.4452   -2.6219 C   0  0  0  0  0  0  0  0  0  0  0  0
    3.3530    1.5492   -1.2638 C   0  0  0  0  0  0  0  0  0  0  0  0
    4.3869    0.7776   -0.7342 C   0  0  0  0  0  0  0  0  0  0  0  0
    5.1277   -0.0809   -1.5572 C   0  0  0  0  0  0  0  0  0  0  0  0
    4.8610   -0.0849   -2.9411 C   0  0  0  0  0  0  0  0  0  0  0  0
    3.8131    0.6718   -3.4724 C   0  0  0  0  0  0  0  0  0  0  0  0
    3.4670    0.5415   -5.1557 Cl  0  0  0  0  0  0  0  0  0  0  0  0
    6.2148   -0.9840   -1.0043 C   0  0  1  0  0  0  0  0  0  0  0  0
    6.4799   -0.7004    0.3736 O   0  0  0  0  0  0  0  0  0  0  0  0
    7.6397   -7.2841   -1.5132 H   0  0  0  0  0  0  0  0  0  0  0  0
    7.1088   -5.9227   -2.4995 H   0  0  0  0  0  0  0  0  0  0  0  0
    8.6229   -6.7792   -2.8946 H   0  0  0  0  0  0  0  0  0  0  0  0
    9.5187   -6.0504   -0.7987 H   0  0  0  0  0  0  0  0  0  0  0  0
    9.6349   -4.6113   -2.8807 H   0  0  0  0  0  0  0  0  0  0  0  0
   10.2415   -2.5174   -1.2456 H   0  0  0  0  0  0  0  0  0  0  0  0
   10.0821   -3.7163    0.0066 H   0  0  0  0  0  0  0  0  0  0  0  0
   12.3819   -3.4432   -0.5880 H   0  0  0  0  0  0  0  0  0  0  0  0
   11.5584   -6.1401   -1.7684 H   0  0  0  0  0  0  0  0  0  0  0  0
   11.7004   -5.7800   -0.0322 H   0  0  0  0  0  0  0  0  0  0  0  0
   13.1218   -5.7015   -1.0780 H   0  0  0  0  0  0  0  0  0  0  0  0
   11.7642   -4.2247   -3.4812 H   0  0  0  0  0  0  0  0  0  0  0  0
   12.0715   -2.5763   -2.9046 H   0  0  0  0  0  0  0  0  0  0  0  0
   13.3368   -3.8061   -2.7952 H   0  0  0  0  0  0  0  0  0  0  0  0
    7.2013   -4.0491   -0.4389 H   0  0  0  0  0  0  0  0  0  0  0  0
    5.5396   -2.6975   -2.2061 H   0  0  0  0  0  0  0  0  0  0  0  0
    3.3258   -2.1863   -1.0659 H   0  0  0  0  0  0  0  0  0  0  0  0
    2.8418   -4.6034    0.2163 H   0  0  0  0  0  0  0  0  0  0  0  0
    3.5546   -3.0199    2.3116 H   0  0  0  0  0  0  0  0  0  0  0  0
    1.9005   -2.4443    2.1897 H   0  0  0  0  0  0  0  0  0  0  0  0
    0.6089   -5.8481    2.9162 H   0  0  0  0  0  0  0  0  0  0  0  0
    0.3843   -4.8347    1.5423 H   0  0  0  0  0  0  0  0  0  0  0  0
    1.4470   -1.2711    0.1907 H   0  0  0  0  0  0  0  0  0  0  0  0
   -0.9363   -2.2384   -1.3280 H   0  0  0  0  0  0  0  0  0  0  0  0
   -2.7901   -2.5524   -0.0734 H   0  0  0  0  0  0  0  0  0  0  0  0
   -2.5832   -2.0580    2.8554 H   0  0  0  0  0  0  0  0  0  0  0  0
   -4.2618   -0.8354    3.7089 H   0  0  0  0  0  0  0  0  0  0  0  0
   -5.6987    0.8672    3.7454 H   0  0  0  0  0  0  0  0  0  0  0  0
   -5.9061   -2.3038    3.6024 H   0  0  0  0  0  0  0  0  0  0  0  0
   -7.6581   -1.9348    5.9356 H   0  0  0  0  0  0  0  0  0  0  0  0
   -4.8794   -0.9329    7.7873 H   0  0  0  0  0  0  0  0  0  0  0  0
   -7.8024   -3.3965    7.6956 H   0  0  0  0  0  0  0  0  0  0  0  0
   -7.5989   -6.5277    9.2188 H   0  0  0  0  0  0  0  0  0  0  0  0
   -6.2717   -7.3775    7.5917 H   0  0  0  0  0  0  0  0  0  0  0  0
   -5.2405   -7.9717    5.7190 H   0  0  0  0  0  0  0  0  0  0  0  0
   -3.7930   -3.4209    4.4019 H   0  0  0  0  0  0  0  0  0  0  0  0
   -4.2726   -4.1730    0.1687 H   0  0  0  0  0  0  0  0  0  0  0  0
   -6.0133   -5.8031    0.6490 H   0  0  0  0  0  0  0  0  0  0  0  0
   -7.3700   -6.6350    2.1788 H   0  0  0  0  0  0  0  0  0  0  0  0
   -7.3293    1.6575    2.2313 H   0  0  0  0  0  0  0  0  0  0  0  0
   -8.2616   -0.1482    1.5071 H   0  0  0  0  0  0  0  0  0  0  0  0
   -6.4482    1.0328   -0.9352 H   0  0  0  0  0  0  0  0  0  0  0  0
   -4.6168    1.9753   -2.2814 H   0  0  0  0  0  0  0  0  0  0  0  0
   -4.5839    2.5649    2.6504 H   0  0  0  0  0  0  0  0  0  0  0  0
   -2.4020    0.4735   -0.4321 H   0  0  0  0  0  0  0  0  0  0  0  0
    1.3236   -0.4443   -2.3194 H   0  0  0  0  0  0  0  0  0  0  0  0
    1.6857    4.4174   -2.6832 H   0  0  0  0  0  0  0  0  0  0  0  0
    2.6779    4.6278    0.4061 H   0  0  0  0  0  0  0  0  0  0  0  0
    1.6697    6.5050    1.7770 H   0  0  0  0  0  0  0  0  0  0  0  0
    0.8547    4.9399    1.8994 H   0  0  0  0  0  0  0  0  0  0  0  0
   -0.7251    5.6173    0.5665 H   0  0  0  0  0  0  0  0  0  0  0  0
    2.8861    7.1577   -0.1566 H   0  0  0  0  0  0  0  0  0  0  0  0
    4.1960    6.5479   -1.8227 H   0  0  0  0  0  0  0  0  0  0  0  0
    2.2338    7.0626   -2.8480 H   0  0  0  0  0  0  0  0  0  0  0  0
    0.7083    8.6259   -2.3460 H   0  0  0  0  0  0  0  0  0  0  0  0
   -0.4146    6.3680   -1.5731 H   0  0  0  0  0  0  0  0  0  0  0  0
   -1.4618    7.7650   -3.0864 H   0  0  0  0  0  0  0  0  0  0  0  0
   -1.2503    8.1852   -5.3687 H   0  0  0  0  0  0  0  0  0  0  0  0
   -1.0848    6.5176   -5.8278 H   0  0  0  0  0  0  0  0  0  0  0  0
   -4.5704    5.6510   -6.3458 H   0  0  0  0  0  0  0  0  0  0  0  0
   -2.9739    5.6250   -7.1074 H   0  0  0  0  0  0  0  0  0  0  0  0
   -3.1995    4.8992   -5.5193 H   0  0  0  0  0  0  0  0  0  0  0  0
   -4.4684    8.0898   -6.7472 H   0  0  0  0  0  0  0  0  0  0  0  0
   -3.3806    9.0475   -6.0250 H   0  0  0  0  0  0  0  0  0  0  0  0
   -5.0729    7.2444   -4.4143 H   0  0  0  0  0  0  0  0  0  0  0  0
   -4.4233    8.8704   -3.0754 H   0  0  0  0  0  0  0  0  0  0  0  0
   -4.1945    5.3686   -3.3053 H   0  0  0  0  0  0  0  0  0  0  0  0
   -3.6413    5.9144   -0.9949 H   0  0  0  0  0  0  0  0  0  0  0  0
   -4.9241    7.0058   -1.5598 H   0  0  0  0  0  0  0  0  0  0  0  0
   -3.2401    7.5675   -1.4082 H   0  0  0  0  0  0  0  0  0  0  0  0
    2.7680    2.1869   -0.6050 H   0  0  0  0  0  0  0  0  0  0  0  0
    4.6005    0.8425    0.3321 H   0  0  0  0  0  0  0  0  0  0  0  0
    5.4653   -0.6987   -3.6094 H   0  0  0  0  0  0  0  0  0  0  0  0
    7.1324   -0.7022   -1.5369 H   0  0  0  0  0  0  0  0  0  0  0  0
    7.1986   -1.3036    0.6409 H   0  0  0  0  0  0  0  0  0  0  0  0
  1  2  1  0
  2  3  1  0
  3  4  1  0
  4  5  1  0
  5  6  1  0
  5  7  1  0
  3  8  1  0
  8  9  2  0
  8 10  1  0
 10 11  1  0
 11 12  1  0
 12 13  2  0
 12 14  1  0
 14 15  1  0
 15 16  1  0
 16 17  1  0
 17 18  1  0
 17 19  2  0
 15 20  1  0
 20 21  2  0
 20 22  1  0
 22 23  1  0
 23 24  1  0
 24 25  2  0
 24 26  1  0
 26 27  1  0
 27 28  1  0
 28 29  2  0
 28 30  1  0
 30 31  1  0
 31 32  1  0
 32 33  2  0
 32 34  1  0
 34 35  1  0
 35 36  1  0
 36 37  2  0
 36 38  1  0
 35 39  1  0
 39 40  2  0
 40 41  1  0
 41 42  1  0
 41 43  2  0
 43 44  1  0
 44 45  1  0
 44 46  2  0
 46 47  1  0
 47 48  1  0
 48 49  2  0
 49 50  1  0
 50 51  2  0
 51 52  1  0
 52 53  1  0
 31 54  1  0
 54 55  1  0
 54 56  1  0
 56 57  1  0
 57 58  2  0
 58 59  1  0
 59 60  2  0
 60 61  1  0
 60 62  1  0
 59 63  1  0
 63 64  1  0
 64 65  2  0
 65 66  1  0
 66 67  2  0
 67 68  1  0
 68 69  2  0
 69 70  1  0
 70 71  1  0
 71 72  1  0
 72 73  1  0
 73 74  1  0
 74 75  1  0
 73 76  1  0
 76 77  1  0
 76 78  1  0
 78 79  1  0
 78 80  1  0
 80 81  1  0
 81 82  1  0
 82 83  1  0
 83 84  1  0
 84 85  1  0
 84 86  1  6
 84 87  1  0
 87 88  1  0
 87 89  1  0
 89 90  1  0
 89 91  1  0
 68 92  1  0
 92 93  1  0
 93 94  1  0
 94 95  2  0
 95 96  1  0
 96 97  2  0
 97 98  1  0
 98 99  1  0
 96100  1  0
100101  1  0
100 11  1  0
 66 23  1  0
 80 71  1  0
 91 82  1  0
 98 93  2  0
 49 27  1  0
 62 56  2  0
 69 64  1  0
 46 39  1  0
 52 47  2  0
  1102  1  0
  1103  1  0
  1104  1  0
  2105  1  0
  3106  1  6
  4107  1  0
  4108  1  0
  5109  1  0
  6110  1  0
  6111  1  0
  6112  1  0
  7113  1  0
  7114  1  0
  7115  1  0
 10116  1  0
 11117  1  6
 14118  1  0
 15119  1  1
 16120  1  0
 16121  1  0
 18122  1  0
 18123  1  0
 22124  1  0
 23125  1  6
 26126  1  0
 27127  1  1
 30128  1  0
 31129  1  1
 34130  1  0
 35131  1  1
 38132  1  0
 40133  1  0
 42134  1  0
 43135  1  0
 45136  1  0
 48137  1  0
 50138  1  0
 51139  1  0
 53140  1  0
 54141  1  1
 55142  1  0
 57143  1  0
 58144  1  0
 62145  1  0
 65146  1  0
 67147  1  0
 71148  1  6
 73149  1  1
 74150  1  0
 74151  1  0
 75152  1  0
 76153  1  1
 77154  1  0
 78155  1  6
 79156  1  0
 80157  1  1
 82158  1  1
 83159  1  0
 83160  1  0
 85161  1  0
 85162  1  0
 85163  1  0
 86164  1  0
 86165  1  0
 87166  1  6
 88167  1  0
 89168  1  6
 90169  1  0
 90170  1  0
 90171  1  0
 94172  1  0
 95173  1  0
 97174  1  0
100175  1  6
101176  1  0
M  END
