
     RDKit          3D

 52 54  0  0  0  0  0  0  0  0999 V2000
    5.5038    0.0597   -0.7797 C   0  0  0  0  0  0  0  0  0  0  0  0
    4.5066   -0.9424   -0.1937 C   0  0  0  0  0  0  0  0  0  0  0  0
    4.9074   -1.3413    1.2284 C   0  0  0  0  0  0  0  0  0  0  0  0
    3.0798   -0.4195   -0.2587 C   0  0  0  0  0  0  0  0  0  0  0  0
    2.1693   -0.9915   -1.0666 C   0  0  0  0  0  0  0  0  0  0  0  0
    0.7862   -0.5797   -1.1061 C   0  0  0  0  0  0  0  0  0  0  0  0
   -0.1555   -1.3311   -1.6950 C   0  0  0  0  0  0  0  0  0  0  0  0
   -1.5960   -0.9421   -1.5627 C   0  0  0  0  0  0  0  0  0  0  0  0
   -1.9152   -0.5602   -0.0867 C   0  0  1  0  0  0  0  0  0  0  0  0
   -0.9044    0.5435    0.4800 C   0  0  2  0  0  0  0  0  0  0  0  0
   -0.4243    0.0870    1.8791 C   0  0  0  0  0  0  0  0  0  0  0  0
   -1.6119    1.9213    0.6376 C   0  0  0  0  0  0  0  0  0  0  0  0
   -2.6325    2.1886   -0.4586 C   0  0  0  0  0  0  0  0  0  0  0  0
   -3.7667    1.1657   -0.5038 C   0  0  0  0  0  0  0  0  0  0  0  0
   -3.4334   -0.2179    0.1047 C   0  0  2  0  0  0  0  0  0  0  0  0
   -3.8603   -0.2483    1.5918 C   0  0  0  0  0  0  0  0  0  0  0  0
   -4.3169   -1.2828   -0.5608 C   0  0  0  0  0  0  0  0  0  0  0  0
   -5.1824   -1.1044   -1.4018 O   0  0  0  0  0  0  0  0  0  0  0  0
   -4.0739   -2.5323   -0.1134 O   0  0  0  0  0  0  0  0  0  0  0  0
    0.3495    0.7261   -0.4749 C   0  0  1  0  0  0  0  0  0  0  0  0
    1.5343    1.5505    0.0798 C   0  0  0  0  0  0  0  0  0  0  0  0
    2.6905    0.7249    0.6426 C   0  0  0  0  0  0  0  0  0  0  0  0
    5.2165    0.3514   -1.7959 H   0  0  0  0  0  0  0  0  0  0  0  0
    5.5772    0.9690   -0.1742 H   0  0  0  0  0  0  0  0  0  0  0  0
    6.5047   -0.3828   -0.8315 H   0  0  0  0  0  0  0  0  0  0  0  0
    4.5767   -1.8520   -0.8062 H   0  0  0  0  0  0  0  0  0  0  0  0
    5.8966   -1.8121    1.2303 H   0  0  0  0  0  0  0  0  0  0  0  0
    4.9522   -0.4755    1.8979 H   0  0  0  0  0  0  0  0  0  0  0  0
    4.1957   -2.0598    1.6498 H   0  0  0  0  0  0  0  0  0  0  0  0
    2.4506   -1.8428   -1.6831 H   0  0  0  0  0  0  0  0  0  0  0  0
    0.0828   -2.2650   -2.1950 H   0  0  0  0  0  0  0  0  0  0  0  0
   -2.1937   -1.8065   -1.8709 H   0  0  0  0  0  0  0  0  0  0  0  0
   -1.8322   -0.1299   -2.2590 H   0  0  0  0  0  0  0  0  0  0  0  0
   -1.7286   -1.4839    0.4842 H   0  0  0  0  0  0  0  0  0  0  0  0
   -1.2648   -0.1272    2.5456 H   0  0  0  0  0  0  0  0  0  0  0  0
    0.1778   -0.8258    1.8145 H   0  0  0  0  0  0  0  0  0  0  0  0
    0.1763    0.8569    2.3739 H   0  0  0  0  0  0  0  0  0  0  0  0
   -0.8823    2.7384    0.6307 H   0  0  0  0  0  0  0  0  0  0  0  0
   -2.1020    2.0059    1.6126 H   0  0  0  0  0  0  0  0  0  0  0  0
   -2.1274    2.2081   -1.4315 H   0  0  0  0  0  0  0  0  0  0  0  0
   -3.0591    3.1905   -0.3274 H   0  0  0  0  0  0  0  0  0  0  0  0
   -4.6444    1.5864    0.0054 H   0  0  0  0  0  0  0  0  0  0  0  0
   -4.0701    1.0720   -1.5546 H   0  0  0  0  0  0  0  0  0  0  0  0
   -3.5217   -1.1672    2.0843 H   0  0  0  0  0  0  0  0  0  0  0  0
   -4.9536   -0.2241    1.6847 H   0  0  0  0  0  0  0  0  0  0  0  0
   -3.4816    0.5939    2.1713 H   0  0  0  0  0  0  0  0  0  0  0  0
   -4.7107   -3.0889   -0.6091 H   0  0  0  0  0  0  0  0  0  0  0  0
   -0.0122    1.3360   -1.3189 H   0  0  0  0  0  0  0  0  0  0  0  0
    1.2131    2.2814    0.8284 H   0  0  0  0  0  0  0  0  0  0  0  0
    1.9371    2.1494   -0.7508 H   0  0  0  0  0  0  0  0  0  0  0  0
    3.5386    1.4027    0.7896 H   0  0  0  0  0  0  0  0  0  0  0  0
    2.4346    0.3274    1.6310 H   0  0  0  0  0  0  0  0  0  0  0  0
  1  2  1  0
  2  3  1  0
  2  4  1  0
  4  5  2  0
  5  6  1  0
  6  7  2  0
  7  8  1  0
  8  9  1  0
  9 10  1  0
 10 11  1  1
 10 12  1  0
 12 13  1  0
 13 14  1  0
 14 15  1  0
 15 16  1  1
 15 17  1  0
 17 18  2  0
 17 19  1  0
 10 20  1  0
 20 21  1  0
 21 22  1  0
 22  4  1  0
 20  6  1  0
 15  9  1  0
  1 23  1  0
  1 24  1  0
  1 25  1  0
  2 26  1  0
  3 27  1  0
  3 28  1  0
  3 29  1  0
  5 30  1  0
  7 31  1  0
  8 32  1  0
  8 33  1  0
  9 34  1  1
 11 35  1  0
 11 36  1  0
 11 37  1  0
 12 38  1  0
 12 39  1  0
 13 40  1  0
 13 41  1  0
 14 42  1  0
 14 43  1  0
 16 44  1  0
 16 45  1  0
 16 46  1  0
 19 47  1  0
 20 48  1  6
 21 49  1  0
 21 50  1  0
 22 51  1  0
 22 52  1  0
M  END
