
     RDKit          3D

 26 27  0  0  0  0  0  0  0  0999 V2000
    2.3551    1.6986   -0.1647 C   0  0  0  0  0  0  0  0  0  0  0  0
    1.4531    0.5364    0.0800 C   0  0  0  0  0  0  0  0  0  0  0  0
    1.5761   -0.3467    1.0919 C   0  0  0  0  0  0  0  0  0  0  0  0
    0.5848   -1.4814    1.2564 C   0  0  0  0  0  0  0  0  0  0  0  0
   -0.4653   -1.4076    0.1271 C   0  0  2  0  0  0  0  0  0  0  0  0
    0.2514   -1.2352   -1.2534 C   0  0  0  0  0  0  0  0  0  0  0  0
    0.3052    0.2885   -0.8673 C   0  0  1  0  0  0  0  0  0  0  0  0
   -1.0894    0.0331   -0.1370 C   0  0  0  0  0  0  0  0  0  0  0  0
   -1.4300    0.8897    1.0896 C   0  0  0  0  0  0  0  0  0  0  0  0
   -2.3187    0.0528   -1.0673 C   0  0  0  0  0  0  0  0  0  0  0  0
    1.7854    2.6328   -0.1370 H   0  0  0  0  0  0  0  0  0  0  0  0
    2.8302    1.6109   -1.1468 H   0  0  0  0  0  0  0  0  0  0  0  0
    3.1468    1.7639    0.5885 H   0  0  0  0  0  0  0  0  0  0  0  0
    2.3743   -0.2584    1.8227 H   0  0  0  0  0  0  0  0  0  0  0  0
    0.0967   -1.4102    2.2340 H   0  0  0  0  0  0  0  0  0  0  0  0
    1.1158   -2.4387    1.2138 H   0  0  0  0  0  0  0  0  0  0  0  0
   -1.1865   -2.2298    0.1762 H   0  0  0  0  0  0  0  0  0  0  0  0
   -0.3479   -1.4792   -2.1363 H   0  0  0  0  0  0  0  0  0  0  0  0
    1.2109   -1.7505   -1.3755 H   0  0  0  0  0  0  0  0  0  0  0  0
    0.2808    0.9841   -1.7116 H   0  0  0  0  0  0  0  0  0  0  0  0
   -1.6525    1.9196    0.7885 H   0  0  0  0  0  0  0  0  0  0  0  0
   -0.6299    0.9406    1.8308 H   0  0  0  0  0  0  0  0  0  0  0  0
   -2.3124    0.4910    1.6028 H   0  0  0  0  0  0  0  0  0  0  0  0
   -2.5519    1.0796   -1.3709 H   0  0  0  0  0  0  0  0  0  0  0  0
   -2.1865   -0.5288   -1.9826 H   0  0  0  0  0  0  0  0  0  0  0  0
   -3.1956   -0.3547   -0.5516 H   0  0  0  0  0  0  0  0  0  0  0  0
  1  2  1  0
  2  3  2  0
  3  4  1  0
  4  5  1  0
  5  6  1  0
  6  7  1  0
  7  8  1  0
  8  9  1  0
  8 10  1  0
  7  2  1  0
  8  5  1  0
  1 11  1  0
  1 12  1  0
  1 13  1  0
  3 14  1  0
  4 15  1  0
  4 16  1  0
  5 17  1  6
  6 18  1  0
  6 19  1  0
  7 20  1  6
  9 21  1  0
  9 22  1  0
  9 23  1  0
 10 24  1  0
 10 25  1  0
 10 26  1  0
M  END
