
     RDKit          3D

 23 23  0  0  0  0  0  0  0  0999 V2000
   -4.4995    0.0698   -0.3415 C   0  0  0  0  0  0  0  0  0  0  0  0
   -3.0426   -0.1699   -0.5722 C   0  0  0  0  0  0  0  0  0  0  0  0
   -2.0803    0.2264    0.2757 C   0  0  0  0  0  0  0  0  0  0  0  0
   -0.6442    0.0053    0.0573 C   0  0  0  0  0  0  0  0  0  0  0  0
    0.2650    0.9809    0.4839 C   0  0  0  0  0  0  0  0  0  0  0  0
    1.6449    0.7997    0.3214 C   0  0  0  0  0  0  0  0  0  0  0  0
    2.1344   -0.3683   -0.2609 C   0  0  0  0  0  0  0  0  0  0  0  0
    3.4501   -0.6715   -0.4769 O   0  0  0  0  0  0  0  0  0  0  0  0
    4.4069    0.3033   -0.0820 C   0  0  0  0  0  0  0  0  0  0  0  0
    1.2327   -1.3511   -0.6727 C   0  0  0  0  0  0  0  0  0  0  0  0
   -0.1448   -1.1708   -0.5117 C   0  0  0  0  0  0  0  0  0  0  0  0
   -4.9124    0.6683   -1.1592 H   0  0  0  0  0  0  0  0  0  0  0  0
   -4.6893    0.5982    0.5981 H   0  0  0  0  0  0  0  0  0  0  0  0
   -5.0332   -0.8850   -0.3099 H   0  0  0  0  0  0  0  0  0  0  0  0
   -2.7884   -0.6844   -1.4959 H   0  0  0  0  0  0  0  0  0  0  0  0
   -2.3427    0.7654    1.1833 H   0  0  0  0  0  0  0  0  0  0  0  0
   -0.0929    1.9010    0.9408 H   0  0  0  0  0  0  0  0  0  0  0  0
    2.3049    1.5901    0.6621 H   0  0  0  0  0  0  0  0  0  0  0  0
    4.2699    1.2383   -0.6355 H   0  0  0  0  0  0  0  0  0  0  0  0
    4.3730    0.4744    0.9990 H   0  0  0  0  0  0  0  0  0  0  0  0
    5.4003   -0.0852   -0.3262 H   0  0  0  0  0  0  0  0  0  0  0  0
    1.6050   -2.2698   -1.1194 H   0  0  0  0  0  0  0  0  0  0  0  0
   -0.8166   -1.9650   -0.8265 H   0  0  0  0  0  0  0  0  0  0  0  0
  1  2  1  0
  2  3  2  0
  3  4  1  0
  4  5  1  0
  5  6  2  0
  6  7  1  0
  7  8  1  0
  8  9  1  0
  7 10  2  0
 10 11  1  0
 11  4  2  0
  1 12  1  0
  1 13  1  0
  1 14  1  0
  2 15  1  0
  3 16  1  0
  5 17  1  0
  6 18  1  0
  9 19  1  0
  9 20  1  0
  9 21  1  0
 10 22  1  0
 11 23  1  0
M  END
