
     RDKit          3D

 42 45  0  0  0  0  0  0  0  0999 V2000
    0.0159    3.6178    0.2730 C   0  0  0  0  0  0  0  0  0  0  0  0
    0.4616    2.1558    0.4285 C   0  0  2  0  0  0  0  0  0  0  0  0
    1.8348    1.9995   -0.2189 C   0  0  0  0  0  0  0  0  0  0  0  0
    2.3357    0.5738   -0.0886 C   0  0  0  0  0  0  0  0  0  0  0  0
    1.3940   -0.3580   -0.8439 C   0  0  1  0  0  0  0  0  0  0  0  0
    1.8828   -1.8166   -0.9105 C   0  0  1  0  0  0  0  0  0  0  0  0
    3.2826   -1.9448   -1.5189 C   0  0  0  0  0  0  0  0  0  0  0  0
    1.8181   -2.4784    0.4426 C   0  0  0  0  0  0  0  0  0  0  0  0
    2.6883   -3.2398    0.8524 O   0  0  0  0  0  0  0  0  0  0  0  0
    0.7116   -2.2521    1.1716 O   0  0  0  0  0  0  0  0  0  0  0  0
   -0.2193   -1.1684    0.9668 C   0  0  2  0  0  0  0  0  0  0  0  0
   -1.5300   -1.7315    1.0599 O   0  0  0  0  0  0  0  0  0  0  0  0
   -2.5281   -1.1322    0.2372 C   0  0  1  0  0  0  0  0  0  0  0  0
   -3.7175   -2.0916    0.2361 C   0  0  0  0  0  0  0  0  0  0  0  0
   -2.9579    0.2264    0.7701 C   0  0  0  0  0  0  0  0  0  0  0  0
   -1.8291    1.2493    0.8661 C   0  0  0  0  0  0  0  0  0  0  0  0
   -0.6112    1.1455   -0.1105 C   0  0  2  0  0  0  0  0  0  0  0  0
   -0.0521   -0.3203   -0.3054 C   0  0  1  0  0  0  0  0  0  0  0  0
   -0.7720   -1.0401   -1.3367 O   0  0  0  0  0  0  0  0  0  0  0  0
   -2.1956   -0.8948   -1.1352 O   0  0  0  0  0  0  0  0  0  0  0  0
   -0.8565    3.8459    0.8912 H   0  0  0  0  0  0  0  0  0  0  0  0
    0.8113    4.3028    0.5873 H   0  0  0  0  0  0  0  0  0  0  0  0
   -0.2317    3.8461   -0.7690 H   0  0  0  0  0  0  0  0  0  0  0  0
    0.6006    1.9708    1.5031 H   0  0  0  0  0  0  0  0  0  0  0  0
    1.7936    2.2894   -1.2766 H   0  0  0  0  0  0  0  0  0  0  0  0
    2.5536    2.6727    0.2645 H   0  0  0  0  0  0  0  0  0  0  0  0
    3.3461    0.5329   -0.5084 H   0  0  0  0  0  0  0  0  0  0  0  0
    2.4141    0.2902    0.9674 H   0  0  0  0  0  0  0  0  0  0  0  0
    1.3646   -0.0060   -1.8874 H   0  0  0  0  0  0  0  0  0  0  0  0
    1.2163   -2.3989   -1.5604 H   0  0  0  0  0  0  0  0  0  0  0  0
    3.5148   -2.9965   -1.7228 H   0  0  0  0  0  0  0  0  0  0  0  0
    4.0615   -1.5737   -0.8448 H   0  0  0  0  0  0  0  0  0  0  0  0
    3.3509   -1.4010   -2.4667 H   0  0  0  0  0  0  0  0  0  0  0  0
   -0.0705   -0.5412    1.8516 H   0  0  0  0  0  0  0  0  0  0  0  0
   -3.4239   -3.0565   -0.1940 H   0  0  0  0  0  0  0  0  0  0  0  0
   -4.5459   -1.7087   -0.3696 H   0  0  0  0  0  0  0  0  0  0  0  0
   -4.0751   -2.2872    1.2527 H   0  0  0  0  0  0  0  0  0  0  0  0
   -3.4074    0.1223    1.7658 H   0  0  0  0  0  0  0  0  0  0  0  0
   -3.7325    0.6449    0.1131 H   0  0  0  0  0  0  0  0  0  0  0  0
   -2.2904    2.2389    0.7641 H   0  0  0  0  0  0  0  0  0  0  0  0
   -1.4581    1.2178    1.8996 H   0  0  0  0  0  0  0  0  0  0  0  0
   -0.9478    1.4955   -1.0964 H   0  0  0  0  0  0  0  0  0  0  0  0
  1  2  1  0
  2  3  1  0
  3  4  1  0
  4  5  1  0
  5  6  1  0
  6  7  1  0
  6  8  1  0
  8  9  2  0
  8 10  1  0
 10 11  1  0
 11 12  1  0
 12 13  1  0
 13 14  1  6
 13 15  1  0
 15 16  1  0
 16 17  1  0
 17 18  1  0
 18 19  1  6
 19 20  1  0
 17  2  1  0
 18  5  1  0
 18 11  1  0
 20 13  1  0
  1 21  1  0
  1 22  1  0
  1 23  1  0
  2 24  1  1
  3 25  1  0
  3 26  1  0
  4 27  1  0
  4 28  1  0
  5 29  1  6
  6 30  1  6
  7 31  1  0
  7 32  1  0
  7 33  1  0
 11 34  1  1
 14 35  1  0
 14 36  1  0
 14 37  1  0
 15 38  1  0
 15 39  1  0
 16 40  1  0
 16 41  1  0
 17 42  1  6
M  END
