
     RDKit          3D

 44 46  0  0  0  0  0  0  0  0999 V2000
    4.9177    1.5257   -0.1105 C   0  0  0  0  0  0  0  0  0  0  0  0
    3.5562    0.9957   -0.0910 N   0  0  0  0  0  0  0  0  0  0  0  0
    3.4731   -0.3880   -0.5947 C   0  0  0  0  0  0  0  0  0  0  0  0
    3.9425   -1.2574    0.5772 C   0  0  0  0  0  0  0  0  0  0  0  0
    3.6401   -0.4254    1.8168 C   0  0  0  0  0  0  0  0  0  0  0  0
    3.0117    0.8622    1.2724 C   0  0  0  0  0  0  0  0  0  0  0  0
    1.4823    0.7208    1.1602 C   0  0  0  0  0  0  0  0  0  0  0  0
    1.0105    0.2563   -0.2274 C   0  0  0  0  0  0  0  0  0  0  0  0
   -0.2692   -0.3900   -0.0634 O   0  0  0  0  0  0  0  0  0  0  0  0
   -1.0780   -0.4305   -1.1611 C   0  0  0  0  0  0  0  0  0  0  0  0
   -0.7921    0.0155   -2.2651 O   0  0  0  0  0  0  0  0  0  0  0  0
   -2.3995   -1.0912   -0.8116 C   0  0  0  0  0  0  0  0  0  0  0  0
   -3.0029   -1.7279   -2.0702 C   0  0  0  0  0  0  0  0  0  0  0  0
   -4.0549   -2.6342   -1.7298 O   0  0  0  0  0  0  0  0  0  0  0  0
   -3.3647   -0.1212   -0.1468 C   0  0  0  0  0  0  0  0  0  0  0  0
   -3.9367   -0.4446    1.0933 C   0  0  0  0  0  0  0  0  0  0  0  0
   -4.8359    0.4270    1.7096 C   0  0  0  0  0  0  0  0  0  0  0  0
   -5.1748    1.6303    1.0951 C   0  0  0  0  0  0  0  0  0  0  0  0
   -4.6153    1.9638   -0.1363 C   0  0  0  0  0  0  0  0  0  0  0  0
   -3.7164    1.0941   -0.7556 C   0  0  0  0  0  0  0  0  0  0  0  0
    2.0005   -0.6800   -0.9399 C   0  0  0  0  0  0  0  0  0  0  0  0
    5.2795    1.5895   -1.1426 H   0  0  0  0  0  0  0  0  0  0  0  0
    5.6355    0.9304    0.4630 H   0  0  0  0  0  0  0  0  0  0  0  0
    4.9280    2.5455    0.2895 H   0  0  0  0  0  0  0  0  0  0  0  0
    4.0893   -0.5634   -1.4843 H   0  0  0  0  0  0  0  0  0  0  0  0
    5.0220   -1.4396    0.5137 H   0  0  0  0  0  0  0  0  0  0  0  0
    3.4495   -2.2340    0.6155 H   0  0  0  0  0  0  0  0  0  0  0  0
    2.9905   -0.9620    2.5157 H   0  0  0  0  0  0  0  0  0  0  0  0
    4.5749   -0.2041    2.3458 H   0  0  0  0  0  0  0  0  0  0  0  0
    3.2448    1.7165    1.9185 H   0  0  0  0  0  0  0  0  0  0  0  0
    1.0873    0.0628    1.9443 H   0  0  0  0  0  0  0  0  0  0  0  0
    1.0197    1.6991    1.3497 H   0  0  0  0  0  0  0  0  0  0  0  0
    0.8755    1.1599   -0.8395 H   0  0  0  0  0  0  0  0  0  0  0  0
   -2.1753   -1.9101   -0.1137 H   0  0  0  0  0  0  0  0  0  0  0  0
   -3.3997   -0.9864   -2.7726 H   0  0  0  0  0  0  0  0  0  0  0  0
   -2.2450   -2.3105   -2.6057 H   0  0  0  0  0  0  0  0  0  0  0  0
   -4.7801   -2.1000   -1.3566 H   0  0  0  0  0  0  0  0  0  0  0  0
   -3.6865   -1.3799    1.5906 H   0  0  0  0  0  0  0  0  0  0  0  0
   -5.2713    0.1673    2.6712 H   0  0  0  0  0  0  0  0  0  0  0  0
   -5.8735    2.3095    1.5766 H   0  0  0  0  0  0  0  0  0  0  0  0
   -4.8776    2.9040   -0.6152 H   0  0  0  0  0  0  0  0  0  0  0  0
   -3.2915    1.3790   -1.7173 H   0  0  0  0  0  0  0  0  0  0  0  0
    1.7473   -1.7296   -0.7465 H   0  0  0  0  0  0  0  0  0  0  0  0
    1.8628   -0.5446   -2.0210 H   0  0  0  0  0  0  0  0  0  0  0  0
  1  2  1  0
  2  3  1  0
  3  4  1  0
  4  5  1  0
  5  6  1  0
  6  7  1  0
  7  8  1  0
  8  9  1  0
  9 10  1  0
 10 11  2  0
 10 12  1  0
 12 13  1  0
 13 14  1  0
 12 15  1  0
 15 16  2  0
 16 17  1  0
 17 18  2  0
 18 19  1  0
 19 20  2  0
  8 21  1  0
  6  2  1  0
 20 15  1  0
 21  3  1  0
  1 22  1  0
  1 23  1  0
  1 24  1  0
  3 25  1  0
  4 26  1  0
  4 27  1  0
  5 28  1  0
  5 29  1  0
  6 30  1  0
  7 31  1  0
  7 32  1  0
  8 33  1  0
 12 34  1  0
 13 35  1  0
 13 36  1  0
 14 37  1  0
 16 38  1  0
 17 39  1  0
 18 40  1  0
 19 41  1  0
 20 42  1  0
 21 43  1  0
 21 44  1  0
M  END
