
     RDKit          3D

 21 21  0  0  0  0  0  0  0  0999 V2000
    4.1434   -0.8516   -1.1835 O   0  0  0  0  0  0  0  0  0  0  0  0
    3.7109    0.0094   -0.4427 C   0  0  0  0  0  0  0  0  0  0  0  0
    4.5054    0.9216    0.1389 O   0  0  0  0  0  0  0  0  0  0  0  0
    2.3150    0.2337   -0.0473 C   0  0  0  0  0  0  0  0  0  0  0  0
    1.3517   -0.5651   -0.5301 C   0  0  0  0  0  0  0  0  0  0  0  0
   -0.0704   -0.4346   -0.1848 C   0  0  0  0  0  0  0  0  0  0  0  0
   -0.8371   -1.6038   -0.0436 C   0  0  0  0  0  0  0  0  0  0  0  0
   -2.1993   -1.5334    0.2600 C   0  0  0  0  0  0  0  0  0  0  0  0
   -2.7945   -0.2915    0.4093 C   0  0  0  0  0  0  0  0  0  0  0  0
   -4.1254   -0.2206    0.7043 O   0  0  0  0  0  0  0  0  0  0  0  0
   -2.0524    0.8759    0.2556 C   0  0  0  0  0  0  0  0  0  0  0  0
   -2.7080    2.0677    0.4051 O   0  0  0  0  0  0  0  0  0  0  0  0
   -0.6945    0.8154   -0.0451 C   0  0  0  0  0  0  0  0  0  0  0  0
    5.4019    0.6873   -0.1806 H   0  0  0  0  0  0  0  0  0  0  0  0
    2.1240    1.0435    0.6449 H   0  0  0  0  0  0  0  0  0  0  0  0
    1.6049   -1.3852   -1.2011 H   0  0  0  0  0  0  0  0  0  0  0  0
   -0.3773   -2.5832   -0.1607 H   0  0  0  0  0  0  0  0  0  0  0  0
   -2.7876   -2.4385    0.3761 H   0  0  0  0  0  0  0  0  0  0  0  0
   -4.3146    0.7374    0.7544 H   0  0  0  0  0  0  0  0  0  0  0  0
   -2.0710    2.7870    0.2543 H   0  0  0  0  0  0  0  0  0  0  0  0
   -0.1249    1.7286   -0.1832 H   0  0  0  0  0  0  0  0  0  0  0  0
  1  2  2  0
  2  3  1  0
  2  4  1  0
  4  5  2  0
  5  6  1  0
  6  7  1  0
  7  8  2  0
  8  9  1  0
  9 10  1  0
  9 11  2  0
 11 12  1  0
 11 13  1  0
 13  6  2  0
  3 14  1  0
  4 15  1  0
  5 16  1  0
  7 17  1  0
  8 18  1  0
 10 19  1  0
 12 20  1  0
 13 21  1  0
M  END
