
     RDKit          3D

 18 18  0  0  0  0  0  0  0  0999 V2000
    4.6468    0.3943   -0.4487 O   0  0  0  0  0  0  0  0  0  0  0  0
    3.6810   -0.3163   -0.2000 C   0  0  0  0  0  0  0  0  0  0  0  0
    2.3059    0.2211   -0.2289 C   0  0  0  0  0  0  0  0  0  0  0  0
    1.2686   -0.5821    0.0481 C   0  0  0  0  0  0  0  0  0  0  0  0
   -0.1526   -0.1851    0.0573 C   0  0  0  0  0  0  0  0  0  0  0  0
   -0.5986    1.1126   -0.2297 C   0  0  0  0  0  0  0  0  0  0  0  0
   -1.9621    1.4248   -0.2038 C   0  0  0  0  0  0  0  0  0  0  0  0
   -2.8996    0.4448    0.1092 C   0  0  0  0  0  0  0  0  0  0  0  0
   -2.4754   -0.8488    0.3968 C   0  0  0  0  0  0  0  0  0  0  0  0
   -1.1128   -1.1604    0.3708 C   0  0  0  0  0  0  0  0  0  0  0  0
    3.7878   -1.3834    0.0558 H   0  0  0  0  0  0  0  0  0  0  0  0
    2.2246    1.2697   -0.4820 H   0  0  0  0  0  0  0  0  0  0  0  0
    1.4538   -1.6268    0.2923 H   0  0  0  0  0  0  0  0  0  0  0  0
    0.0973    1.9083   -0.4789 H   0  0  0  0  0  0  0  0  0  0  0  0
   -2.2896    2.4368   -0.4291 H   0  0  0  0  0  0  0  0  0  0  0  0
   -3.9584    0.6892    0.1287 H   0  0  0  0  0  0  0  0  0  0  0  0
   -3.2036   -1.6178    0.6418 H   0  0  0  0  0  0  0  0  0  0  0  0
   -0.8132   -2.1808    0.6004 H   0  0  0  0  0  0  0  0  0  0  0  0
  1  2  2  0
  2  3  1  0
  3  4  2  0
  4  5  1  0
  5  6  2  0
  6  7  1  0
  7  8  2  0
  8  9  1  0
  9 10  2  0
 10  5  1  0
  2 11  1  0
  3 12  1  0
  4 13  1  0
  6 14  1  0
  7 15  1  0
  8 16  1  0
  9 17  1  0
 10 18  1  0
M  END
