
     RDKit          3D

 17 18  0  0  0  0  0  0  0  0999 V2000
    3.3921    1.8202   -0.0290 O   0  0  0  0  0  0  0  0  0  0  0  0
    2.3897    1.1147   -0.0211 C   0  0  0  0  0  0  0  0  0  0  0  0
    2.5066   -0.3544   -0.0285 C   0  0  0  0  0  0  0  0  0  0  0  0
    1.4401   -1.1598   -0.0204 C   0  0  0  0  0  0  0  0  0  0  0  0
    0.1073   -0.5799   -0.0036 C   0  0  0  0  0  0  0  0  0  0  0  0
   -1.0452   -1.3681    0.0055 C   0  0  0  0  0  0  0  0  0  0  0  0
   -2.3062   -0.7628    0.0217 C   0  0  0  0  0  0  0  0  0  0  0  0
   -2.4205    0.6296    0.0288 C   0  0  0  0  0  0  0  0  0  0  0  0
   -1.2747    1.4228    0.0197 C   0  0  0  0  0  0  0  0  0  0  0  0
   -0.0252    0.8075    0.0037 C   0  0  0  0  0  0  0  0  0  0  0  0
    1.1073    1.6450   -0.0051 O   0  0  0  0  0  0  0  0  0  0  0  0
    3.5168   -0.7450   -0.0411 H   0  0  0  0  0  0  0  0  0  0  0  0
    1.5494   -2.2384   -0.0261 H   0  0  0  0  0  0  0  0  0  0  0  0
   -0.9775   -2.4531    0.0003 H   0  0  0  0  0  0  0  0  0  0  0  0
   -3.2025   -1.3789    0.0288 H   0  0  0  0  0  0  0  0  0  0  0  0
   -3.4033    1.0947    0.0413 H   0  0  0  0  0  0  0  0  0  0  0  0
   -1.3541    2.5059    0.0251 H   0  0  0  0  0  0  0  0  0  0  0  0
  1  2  2  0
  2  3  1  0
  3  4  2  0
  4  5  1  0
  5  6  2  0
  6  7  1  0
  7  8  2  0
  8  9  1  0
  9 10  2  0
 10 11  1  0
 11  2  1  0
 10  5  1  0
  3 12  1  0
  4 13  1  0
  6 14  1  0
  7 15  1  0
  8 16  1  0
  9 17  1  0
M  END
