
     RDKit          3D

 30 32  0  0  0  0  0  0  0  0999 V2000
    4.3398   -1.9173   -0.9682 C   0  0  0  0  0  0  0  0  0  0  0  0
    3.1787   -1.0900   -0.5001 C   0  0  0  0  0  0  0  0  0  0  0  0
    3.3945    0.1217    0.1659 C   0  0  0  0  0  0  0  0  0  0  0  0
    2.3149    0.9048    0.5726 C   0  0  0  0  0  0  0  0  0  0  0  0
    2.6250    2.0687    1.2233 O   0  0  0  0  0  0  0  0  0  0  0  0
    1.0007    0.4977    0.3129 C   0  0  0  0  0  0  0  0  0  0  0  0
    0.7801   -0.7011   -0.3631 C   0  0  0  0  0  0  0  0  0  0  0  0
    1.8647   -1.4908   -0.7735 C   0  0  0  0  0  0  0  0  0  0  0  0
   -0.5949   -1.1520   -0.6573 C   0  0  0  0  0  0  0  0  0  0  0  0
   -0.7904   -2.2041   -1.2540 O   0  0  0  0  0  0  0  0  0  0  0  0
   -1.7373   -0.3230   -0.2254 C   0  0  0  0  0  0  0  0  0  0  0  0
   -3.0412   -0.7574   -0.5056 C   0  0  0  0  0  0  0  0  0  0  0  0
   -4.1206    0.0199   -0.1008 C   0  0  0  0  0  0  0  0  0  0  0  0
   -5.4038   -0.3634   -0.3518 O   0  0  0  0  0  0  0  0  0  0  0  0
   -3.9219    1.2179    0.5757 C   0  0  0  0  0  0  0  0  0  0  0  0
   -2.6252    1.6455    0.8518 C   0  0  0  0  0  0  0  0  0  0  0  0
   -2.5068    2.8341    1.5206 O   0  0  0  0  0  0  0  0  0  0  0  0
   -1.5229    0.8775    0.4529 C   0  0  0  0  0  0  0  0  0  0  0  0
   -0.1458    1.3210    0.7398 C   0  0  0  0  0  0  0  0  0  0  0  0
    0.0463    2.3797    1.3361 O   0  0  0  0  0  0  0  0  0  0  0  0
    5.1995   -1.7970   -0.3006 H   0  0  0  0  0  0  0  0  0  0  0  0
    4.6311   -1.6148   -1.9787 H   0  0  0  0  0  0  0  0  0  0  0  0
    4.0822   -2.9816   -0.9769 H   0  0  0  0  0  0  0  0  0  0  0  0
    4.4066    0.4642    0.3739 H   0  0  0  0  0  0  0  0  0  0  0  0
    1.7880    2.5267    1.4585 H   0  0  0  0  0  0  0  0  0  0  0  0
    1.6835   -2.4233   -1.3079 H   0  0  0  0  0  0  0  0  0  0  0  0
   -3.1982   -1.6943   -1.0347 H   0  0  0  0  0  0  0  0  0  0  0  0
   -5.4010   -1.2117   -0.8268 H   0  0  0  0  0  0  0  0  0  0  0  0
   -4.7733    1.8174    0.8874 H   0  0  0  0  0  0  0  0  0  0  0  0
   -1.5523    3.0253    1.6539 H   0  0  0  0  0  0  0  0  0  0  0  0
  1  2  1  0
  2  3  1  0
  3  4  2  0
  4  5  1  0
  4  6  1  0
  6  7  2  0
  7  8  1  0
  7  9  1  0
  9 10  2  0
  9 11  1  0
 11 12  2  0
 12 13  1  0
 13 14  1  0
 13 15  2  0
 15 16  1  0
 16 17  1  0
 16 18  2  0
 18 19  1  0
 19 20  2  0
  8  2  2  0
 18 11  1  0
 19  6  1  0
  1 21  1  0
  1 22  1  0
  1 23  1  0
  3 24  1  0
  5 25  1  0
  8 26  1  0
 12 27  1  0
 14 28  1  0
 15 29  1  0
 17 30  1  0
M  END
