
     RDKit          3D

 24 24  0  0  0  0  0  0  0  0999 V2000
   -2.3914    1.7813   -1.6591 C   0  0  0  0  0  0  0  0  0  0  0  0
   -2.8286    0.6505   -0.9201 O   0  0  0  0  0  0  0  0  0  0  0  0
   -1.8724   -0.1150   -0.3056 C   0  0  0  0  0  0  0  0  0  0  0  0
   -0.4949    0.1304   -0.3497 C   0  0  0  0  0  0  0  0  0  0  0  0
    0.4085   -0.7118    0.3203 C   0  0  0  0  0  0  0  0  0  0  0  0
    1.8616   -0.4978    0.2736 C   0  0  0  0  0  0  0  0  0  0  0  0
    2.4410    0.7112    0.3180 C   0  0  0  0  0  0  0  0  0  0  0  0
    3.9047    0.8167    0.2814 C   0  0  0  0  0  0  0  0  0  0  0  0
    4.7126   -0.0897    0.2254 O   0  0  0  0  0  0  0  0  0  0  0  0
    4.2742    2.1066    0.3167 O   0  0  0  0  0  0  0  0  0  0  0  0
   -0.0823   -1.8243    1.0146 C   0  0  0  0  0  0  0  0  0  0  0  0
   -1.4530   -2.0801    1.0667 C   0  0  0  0  0  0  0  0  0  0  0  0
   -2.3376   -1.2257    0.4113 C   0  0  0  0  0  0  0  0  0  0  0  0
   -3.6836   -1.4739    0.4616 O   0  0  0  0  0  0  0  0  0  0  0  0
   -1.7541    1.4826   -2.4980 H   0  0  0  0  0  0  0  0  0  0  0  0
   -3.2767    2.2730   -2.0737 H   0  0  0  0  0  0  0  0  0  0  0  0
   -1.8825    2.5037   -1.0125 H   0  0  0  0  0  0  0  0  0  0  0  0
   -0.1043    0.9698   -0.9145 H   0  0  0  0  0  0  0  0  0  0  0  0
    2.4741   -1.3972    0.2238 H   0  0  0  0  0  0  0  0  0  0  0  0
    1.8823    1.6351    0.3954 H   0  0  0  0  0  0  0  0  0  0  0  0
    5.2531    2.0701    0.2895 H   0  0  0  0  0  0  0  0  0  0  0  0
    0.5997   -2.4981    1.5295 H   0  0  0  0  0  0  0  0  0  0  0  0
   -1.8097   -2.9444    1.6180 H   0  0  0  0  0  0  0  0  0  0  0  0
   -3.8406   -2.2730    0.9873 H   0  0  0  0  0  0  0  0  0  0  0  0
  1  2  1  0
  2  3  1  0
  3  4  1  0
  4  5  2  0
  5  6  1  0
  6  7  2  0
  7  8  1  0
  8  9  2  0
  8 10  1  0
  5 11  1  0
 11 12  2  0
 12 13  1  0
 13 14  1  0
 13  3  2  0
  1 15  1  0
  1 16  1  0
  1 17  1  0
  4 18  1  0
  6 19  1  0
  7 20  1  0
 10 21  1  0
 11 22  1  0
 12 23  1  0
 14 24  1  0
M  END
