
     RDKit          3D

 30 32  0  0  0  0  0  0  0  0999 V2000
   -1.9123   -2.7400    0.7248 O   0  0  0  0  0  0  0  0  0  0  0  0
   -1.3647   -1.6713    0.4624 C   0  0  0  0  0  0  0  0  0  0  0  0
    0.1082   -1.5945    0.3289 C   0  0  0  0  0  0  0  0  0  0  0  0
    0.8174   -2.7688    0.5008 O   0  0  0  0  0  0  0  0  0  0  0  0
    0.6658   -0.4051    0.0356 C   0  0  0  0  0  0  0  0  0  0  0  0
    2.1217   -0.2122   -0.1331 C   0  0  0  0  0  0  0  0  0  0  0  0
    2.6070    0.5088   -1.2355 C   0  0  0  0  0  0  0  0  0  0  0  0
    3.9775    0.7253   -1.4018 C   0  0  0  0  0  0  0  0  0  0  0  0
    4.8803    0.2295   -0.4642 C   0  0  0  0  0  0  0  0  0  0  0  0
    4.4142   -0.4805    0.6399 C   0  0  0  0  0  0  0  0  0  0  0  0
    3.0436   -0.6969    0.8061 C   0  0  0  0  0  0  0  0  0  0  0  0
   -0.0601    0.7639   -0.1623 O   0  0  0  0  0  0  0  0  0  0  0  0
   -1.4255    0.7277   -0.0333 C   0  0  0  0  0  0  0  0  0  0  0  0
   -2.1092    1.9300   -0.2240 C   0  0  0  0  0  0  0  0  0  0  0  0
   -3.4968    1.9487   -0.1069 C   0  0  0  0  0  0  0  0  0  0  0  0
   -4.2071    3.0990   -0.2837 O   0  0  0  0  0  0  0  0  0  0  0  0
   -4.2070    0.7899    0.1954 C   0  0  0  0  0  0  0  0  0  0  0  0
   -3.5199   -0.4058    0.3846 C   0  0  0  0  0  0  0  0  0  0  0  0
   -4.2689   -1.5123    0.6793 O   0  0  0  0  0  0  0  0  0  0  0  0
   -2.1270   -0.4362    0.2707 C   0  0  0  0  0  0  0  0  0  0  0  0
    0.1418   -3.4577    0.6731 H   0  0  0  0  0  0  0  0  0  0  0  0
    1.9192    0.9031   -1.9804 H   0  0  0  0  0  0  0  0  0  0  0  0
    4.3387    1.2801   -2.2638 H   0  0  0  0  0  0  0  0  0  0  0  0
    5.9465    0.3961   -0.5934 H   0  0  0  0  0  0  0  0  0  0  0  0
    5.1161   -0.8679    1.3738 H   0  0  0  0  0  0  0  0  0  0  0  0
    2.7028   -1.2501    1.6786 H   0  0  0  0  0  0  0  0  0  0  0  0
   -1.5518    2.8313   -0.4595 H   0  0  0  0  0  0  0  0  0  0  0  0
   -3.5956    3.8282   -0.4793 H   0  0  0  0  0  0  0  0  0  0  0  0
   -5.2896    0.8185    0.2833 H   0  0  0  0  0  0  0  0  0  0  0  0
   -3.6652   -2.2805    0.7838 H   0  0  0  0  0  0  0  0  0  0  0  0
  1  2  2  0
  2  3  1  0
  3  4  1  0
  3  5  2  0
  5  6  1  0
  6  7  2  0
  7  8  1  0
  8  9  2  0
  9 10  1  0
 10 11  2  0
  5 12  1  0
 12 13  1  0
 13 14  2  0
 14 15  1  0
 15 16  1  0
 15 17  2  0
 17 18  1  0
 18 19  1  0
 18 20  2  0
 20  2  1  0
 11  6  1  0
 20 13  1  0
  4 21  1  0
  7 22  1  0
  8 23  1  0
  9 24  1  0
 10 25  1  0
 11 26  1  0
 14 27  1  0
 16 28  1  0
 17 29  1  0
 19 30  1  0
M  END
