
     RDKit          3D

 30 32  0  0  0  0  0  0  0  0999 V2000
   -0.2799   -1.0430   -1.5232 O   0  0  0  0  0  0  0  0  0  0  0  0
   -0.5268   -0.4098   -0.5005 C   0  0  0  0  0  0  0  0  0  0  0  0
    0.5192    0.2584    0.3202 C   0  0  0  0  0  0  0  0  0  0  0  0
    1.9515    0.1975   -0.0215 C   0  0  0  0  0  0  0  0  0  0  0  0
    2.5680   -1.0345   -0.2826 C   0  0  0  0  0  0  0  0  0  0  0  0
    3.9274   -1.0974   -0.5981 C   0  0  0  0  0  0  0  0  0  0  0  0
    4.6759    0.0708   -0.6587 C   0  0  0  0  0  0  0  0  0  0  0  0
    5.9981   -0.0372   -0.9708 O   0  0  0  0  0  0  0  0  0  0  0  0
    4.0873    1.3056   -0.4111 C   0  0  0  0  0  0  0  0  0  0  0  0
    2.7267    1.3672   -0.0941 C   0  0  0  0  0  0  0  0  0  0  0  0
    0.1031    0.9054    1.4202 C   0  0  0  0  0  0  0  0  0  0  0  0
   -1.1917    1.0310    1.8621 O   0  0  0  0  0  0  0  0  0  0  0  0
   -2.1800    0.4339    1.1219 C   0  0  0  0  0  0  0  0  0  0  0  0
   -3.4891    0.5713    1.5835 C   0  0  0  0  0  0  0  0  0  0  0  0
   -4.5321   -0.0148    0.8723 C   0  0  0  0  0  0  0  0  0  0  0  0
   -5.7965    0.1433    1.3574 O   0  0  0  0  0  0  0  0  0  0  0  0
   -4.2894   -0.7363   -0.2930 C   0  0  0  0  0  0  0  0  0  0  0  0
   -2.9795   -0.8696   -0.7487 C   0  0  0  0  0  0  0  0  0  0  0  0
   -2.8023   -1.5891   -1.9005 O   0  0  0  0  0  0  0  0  0  0  0  0
   -1.9203   -0.2854   -0.0429 C   0  0  0  0  0  0  0  0  0  0  0  0
    1.9956   -1.9594   -0.2476 H   0  0  0  0  0  0  0  0  0  0  0  0
    4.3969   -2.0559   -0.8009 H   0  0  0  0  0  0  0  0  0  0  0  0
    6.3840    0.8532   -1.0071 H   0  0  0  0  0  0  0  0  0  0  0  0
    4.6631    2.2242   -0.4628 H   0  0  0  0  0  0  0  0  0  0  0  0
    2.2757    2.3412    0.0844 H   0  0  0  0  0  0  0  0  0  0  0  0
    0.7668    1.4113    2.1119 H   0  0  0  0  0  0  0  0  0  0  0  0
   -3.6977    1.1305    2.4913 H   0  0  0  0  0  0  0  0  0  0  0  0
   -6.4185   -0.3155    0.7674 H   0  0  0  0  0  0  0  0  0  0  0  0
   -5.0962   -1.1967   -0.8547 H   0  0  0  0  0  0  0  0  0  0  0  0
   -1.8395   -1.6001   -2.1081 H   0  0  0  0  0  0  0  0  0  0  0  0
  1  2  2  0
  2  3  1  0
  3  4  1  0
  4  5  1  0
  5  6  2  0
  6  7  1  0
  7  8  1  0
  7  9  2  0
  9 10  1  0
  3 11  2  0
 11 12  1  0
 12 13  1  0
 13 14  2  0
 14 15  1  0
 15 16  1  0
 15 17  2  0
 17 18  1  0
 18 19  1  0
 18 20  2  0
 20  2  1  0
 10  4  2  0
 20 13  1  0
  5 21  1  0
  6 22  1  0
  8 23  1  0
  9 24  1  0
 10 25  1  0
 11 26  1  0
 14 27  1  0
 16 28  1  0
 17 29  1  0
 19 30  1  0
M  END
