
     RDKit          3D

 28 30  0  0  0  0  0  0  0  0999 V2000
    5.0891    0.3955    0.2935 C   0  0  0  0  0  0  0  0  0  0  0  0
    3.8935    1.1650    0.3089 O   0  0  0  0  0  0  0  0  0  0  0  0
    2.7131    0.4809    0.1811 C   0  0  0  0  0  0  0  0  0  0  0  0
    2.5830   -0.8997    0.0377 C   0  0  0  0  0  0  0  0  0  0  0  0
    1.3169   -1.4935   -0.0855 C   0  0  0  0  0  0  0  0  0  0  0  0
    0.1617   -0.6864   -0.0644 C   0  0  0  0  0  0  0  0  0  0  0  0
    0.3194    0.6893    0.0799 C   0  0  0  0  0  0  0  0  0  0  0  0
    1.5749    1.2970    0.2040 C   0  0  0  0  0  0  0  0  0  0  0  0
   -0.9382    1.2433    0.0708 N   0  0  0  0  0  0  0  0  0  0  0  0
   -1.9050    0.2744   -0.0744 C   0  0  0  0  0  0  0  0  0  0  0  0
   -3.2989    0.3842   -0.1344 C   0  0  0  0  0  0  0  0  0  0  0  0
   -4.0478    1.6756   -0.0446 C   0  0  0  0  0  0  0  0  0  0  0  0
   -4.0181   -0.7609   -0.2844 N   0  0  0  0  0  0  0  0  0  0  0  0
   -3.3805   -1.9484   -0.3696 C   0  0  0  0  0  0  0  0  0  0  0  0
   -2.0067   -2.1132   -0.3160 C   0  0  0  0  0  0  0  0  0  0  0  0
   -1.2418   -0.9488   -0.1618 C   0  0  0  0  0  0  0  0  0  0  0  0
    5.9315    1.0850    0.4046 H   0  0  0  0  0  0  0  0  0  0  0  0
    5.2104   -0.1266   -0.6613 H   0  0  0  0  0  0  0  0  0  0  0  0
    5.1190   -0.3045    1.1350 H   0  0  0  0  0  0  0  0  0  0  0  0
    3.4477   -1.5548    0.0168 H   0  0  0  0  0  0  0  0  0  0  0  0
    1.2314   -2.5705   -0.1965 H   0  0  0  0  0  0  0  0  0  0  0  0
    1.6737    2.3723    0.3155 H   0  0  0  0  0  0  0  0  0  0  0  0
   -1.1253    2.2313    0.1591 H   0  0  0  0  0  0  0  0  0  0  0  0
   -3.7488    2.3417   -0.8596 H   0  0  0  0  0  0  0  0  0  0  0  0
   -3.8389    2.1663    0.9108 H   0  0  0  0  0  0  0  0  0  0  0  0
   -5.1270    1.5080   -0.1161 H   0  0  0  0  0  0  0  0  0  0  0  0
   -4.0341   -2.8085   -0.4880 H   0  0  0  0  0  0  0  0  0  0  0  0
   -1.5543   -3.0938   -0.3901 H   0  0  0  0  0  0  0  0  0  0  0  0
  1  2  1  0
  2  3  1  0
  3  4  2  0
  4  5  1  0
  5  6  2  0
  6  7  1  0
  7  8  2  0
  7  9  1  0
  9 10  1  0
 10 11  2  0
 11 12  1  0
 11 13  1  0
 13 14  2  0
 14 15  1  0
 15 16  2  0
  8  3  1  0
 16 10  1  0
 16  6  1  0
  1 17  1  0
  1 18  1  0
  1 19  1  0
  4 20  1  0
  5 21  1  0
  8 22  1  0
  9 23  1  0
 12 24  1  0
 12 25  1  0
 12 26  1  0
 14 27  1  0
 15 28  1  0
M  END
