
     RDKit          3D

 31 33  0  0  0  0  0  0  0  0999 V2000
   -2.0737   -2.8818    0.0366 O   0  0  0  0  0  0  0  0  0  0  0  0
   -1.5501   -1.7711    0.0888 C   0  0  0  0  0  0  0  0  0  0  0  0
   -0.0832   -1.6252   -0.0542 C   0  0  0  0  0  0  0  0  0  0  0  0
    0.6470   -2.7816   -0.2572 O   0  0  0  0  0  0  0  0  0  0  0  0
    0.4486   -0.3902    0.0045 C   0  0  0  0  0  0  0  0  0  0  0  0
    1.8958   -0.1231   -0.1383 C   0  0  0  0  0  0  0  0  0  0  0  0
    2.8557   -0.8519    0.5817 C   0  0  0  0  0  0  0  0  0  0  0  0
    4.2190   -0.5679    0.4516 C   0  0  0  0  0  0  0  0  0  0  0  0
    4.6261    0.4553   -0.3965 C   0  0  0  0  0  0  0  0  0  0  0  0
    5.9437    0.7667   -0.5539 O   0  0  0  0  0  0  0  0  0  0  0  0
    3.6955    1.1970   -1.1118 C   0  0  0  0  0  0  0  0  0  0  0  0
    2.3342    0.9109   -0.9812 C   0  0  0  0  0  0  0  0  0  0  0  0
   -0.2991    0.7682    0.1822 O   0  0  0  0  0  0  0  0  0  0  0  0
   -1.6593    0.6650    0.3289 C   0  0  0  0  0  0  0  0  0  0  0  0
   -2.3650    1.8543    0.5207 C   0  0  0  0  0  0  0  0  0  0  0  0
   -3.7485    1.8064    0.6735 C   0  0  0  0  0  0  0  0  0  0  0  0
   -4.4798    2.9413    0.8638 O   0  0  0  0  0  0  0  0  0  0  0  0
   -4.4329    0.5944    0.6369 C   0  0  0  0  0  0  0  0  0  0  0  0
   -3.7239   -0.5880    0.4453 C   0  0  0  0  0  0  0  0  0  0  0  0
   -4.4480   -1.7486    0.4179 O   0  0  0  0  0  0  0  0  0  0  0  0
   -2.3350   -0.5521    0.2917 C   0  0  0  0  0  0  0  0  0  0  0  0
   -0.0145   -3.5046   -0.2843 H   0  0  0  0  0  0  0  0  0  0  0  0
    2.5492   -1.6514    1.2530 H   0  0  0  0  0  0  0  0  0  0  0  0
    4.9377   -1.1522    1.0172 H   0  0  0  0  0  0  0  0  0  0  0  0
    6.4725    0.1570   -0.0137 H   0  0  0  0  0  0  0  0  0  0  0  0
    4.0264    1.9949   -1.7703 H   0  0  0  0  0  0  0  0  0  0  0  0
    1.6185    1.4999   -1.5504 H   0  0  0  0  0  0  0  0  0  0  0  0
   -1.8279    2.7973    0.5488 H   0  0  0  0  0  0  0  0  0  0  0  0
   -3.8854    3.7098    0.8733 H   0  0  0  0  0  0  0  0  0  0  0  0
   -5.5125    0.5716    0.7571 H   0  0  0  0  0  0  0  0  0  0  0  0
   -3.8313   -2.4997    0.2733 H   0  0  0  0  0  0  0  0  0  0  0  0
  1  2  2  0
  2  3  1  0
  3  4  1  0
  3  5  2  0
  5  6  1  0
  6  7  1  0
  7  8  2  0
  8  9  1  0
  9 10  1  0
  9 11  2  0
 11 12  1  0
  5 13  1  0
 13 14  1  0
 14 15  2  0
 15 16  1  0
 16 17  1  0
 16 18  2  0
 18 19  1  0
 19 20  1  0
 19 21  2  0
 21  2  1  0
 12  6  2  0
 21 14  1  0
  4 22  1  0
  7 23  1  0
  8 24  1  0
 10 25  1  0
 11 26  1  0
 12 27  1  0
 15 28  1  0
 17 29  1  0
 18 30  1  0
 20 31  1  0
M  END
