
     RDKit          3D

 40 44  0  0  0  0  0  0  0  0999 V2000
    3.6063    0.2634    0.2865 C   0  0  0  0  0  0  0  0  0  0  0  0
    2.6889   -0.1021   -0.7812 N   0  0  0  0  0  0  0  0  0  0  0  0
    2.3158   -1.5153   -0.7463 C   0  0  0  0  0  0  0  0  0  0  0  0
    0.9746   -1.8220   -0.0724 C   0  0  0  0  0  0  0  0  0  0  0  0
   -0.1362   -0.8210   -0.4746 C   0  0  2  0  0  0  0  0  0  0  0  0
   -0.4330    0.0413    0.7156 C   0  0  0  0  0  0  0  0  0  0  0  0
    0.2044    1.2174    1.0682 C   0  0  0  0  0  0  0  0  0  0  0  0
   -0.2145    1.8486    2.2441 C   0  0  0  0  0  0  0  0  0  0  0  0
   -1.2655    1.3039    3.0099 C   0  0  0  0  0  0  0  0  0  0  0  0
   -1.9294    0.1578    2.5768 C   0  0  0  0  0  0  0  0  0  0  0  0
   -2.9831   -0.3230    3.2893 O   0  0  0  0  0  0  0  0  0  0  0  0
   -1.5159   -0.4436    1.4104 C   0  0  0  0  0  0  0  0  0  0  0  0
   -2.1317   -1.4881    0.7733 O   0  0  0  0  0  0  0  0  0  0  0  0
   -1.5339   -1.4761   -0.5786 C   0  0  1  0  0  0  0  0  0  0  0  0
   -2.4942   -0.7919   -1.5995 C   0  0  1  0  0  0  0  0  0  0  0  0
   -3.8158   -0.6588   -1.0822 O   0  0  0  0  0  0  0  0  0  0  0  0
   -2.0672    0.5474   -2.1276 C   0  0  0  0  0  0  0  0  0  0  0  0
   -0.7885    0.9542   -2.1577 C   0  0  0  0  0  0  0  0  0  0  0  0
    0.3281    0.0865   -1.6269 C   0  0  1  0  0  0  0  0  0  0  0  0
    1.5863    0.8547   -1.0748 C   0  0  1  0  0  0  0  0  0  0  0  0
    1.1787    1.8222    0.0952 C   0  0  0  0  0  0  0  0  0  0  0  0
    4.4825   -0.3955    0.2845 H   0  0  0  0  0  0  0  0  0  0  0  0
    3.9987    1.2750    0.1375 H   0  0  0  0  0  0  0  0  0  0  0  0
    3.1411    0.1966    1.2755 H   0  0  0  0  0  0  0  0  0  0  0  0
    3.1009   -2.1295   -0.2865 H   0  0  0  0  0  0  0  0  0  0  0  0
    2.2722   -1.8725   -1.7839 H   0  0  0  0  0  0  0  0  0  0  0  0
    0.6918   -2.8396   -0.3694 H   0  0  0  0  0  0  0  0  0  0  0  0
    1.1224   -1.8528    1.0154 H   0  0  0  0  0  0  0  0  0  0  0  0
    0.2473    2.7802    2.5629 H   0  0  0  0  0  0  0  0  0  0  0  0
   -1.5878    1.8015    3.9206 H   0  0  0  0  0  0  0  0  0  0  0  0
   -3.2642   -1.1420    2.8402 H   0  0  0  0  0  0  0  0  0  0  0  0
   -1.4499   -2.5298   -0.8726 H   0  0  0  0  0  0  0  0  0  0  0  0
   -2.5759   -1.4483   -2.4749 H   0  0  0  0  0  0  0  0  0  0  0  0
   -3.7167   -0.4760   -0.1297 H   0  0  0  0  0  0  0  0  0  0  0  0
   -2.8420    1.1777   -2.5578 H   0  0  0  0  0  0  0  0  0  0  0  0
   -0.5357    1.9081   -2.6140 H   0  0  0  0  0  0  0  0  0  0  0  0
    0.6394   -0.5220   -2.4882 H   0  0  0  0  0  0  0  0  0  0  0  0
    1.9712    1.4966   -1.8788 H   0  0  0  0  0  0  0  0  0  0  0  0
    2.0471    2.2229    0.6260 H   0  0  0  0  0  0  0  0  0  0  0  0
    0.6829    2.6937   -0.3543 H   0  0  0  0  0  0  0  0  0  0  0  0
  1  2  1  0
  2  3  1  0
  3  4  1  0
  5  4  1  1
  5  6  1  0
  6  7  2  0
  7  8  1  0
  8  9  2  0
  9 10  1  0
 10 11  1  0
 10 12  2  0
 12 13  1  0
 13 14  1  0
 14 15  1  0
 15 16  1  0
 15 17  1  0
 17 18  2  0
 18 19  1  0
 19 20  1  0
 20 21  1  0
 20  2  1  0
 14  5  1  0
 19  5  1  0
 12  6  1  0
 21  7  1  0
  1 22  1  0
  1 23  1  0
  1 24  1  0
  3 25  1  0
  3 26  1  0
  4 27  1  0
  4 28  1  0
  8 29  1  0
  9 30  1  0
 11 31  1  0
 14 32  1  6
 15 33  1  6
 16 34  1  0
 17 35  1  0
 18 36  1  0
 19 37  1  6
 20 38  1  6
 21 39  1  0
 21 40  1  0
M  END
