
     RDKit          3D

 33 35  0  0  0  0  0  0  0  0999 V2000
   -3.0245    1.2476   -1.8129 O   0  0  0  0  0  0  0  0  0  0  0  0
   -2.2193    0.7182   -1.0501 C   0  0  0  0  0  0  0  0  0  0  0  0
   -0.7635    0.8160   -1.3027 C   0  0  0  0  0  0  0  0  0  0  0  0
   -0.3608    1.5328   -2.4133 O   0  0  0  0  0  0  0  0  0  0  0  0
    0.0794    0.2227   -0.4376 C   0  0  0  0  0  0  0  0  0  0  0  0
    1.5492    0.2606   -0.5886 C   0  0  0  0  0  0  0  0  0  0  0  0
    2.3517    0.6185    0.5133 C   0  0  0  0  0  0  0  0  0  0  0  0
    3.7388    0.6311    0.3890 C   0  0  0  0  0  0  0  0  0  0  0  0
    4.5578    0.9761    1.4284 O   0  0  0  0  0  0  0  0  0  0  0  0
    4.3358    0.2843   -0.8160 C   0  0  0  0  0  0  0  0  0  0  0  0
    5.6981    0.2913   -0.9465 O   0  0  0  0  0  0  0  0  0  0  0  0
    3.5540   -0.0782   -1.9029 C   0  0  0  0  0  0  0  0  0  0  0  0
    4.1446   -0.4263   -3.0833 O   0  0  0  0  0  0  0  0  0  0  0  0
    2.1683   -0.0951   -1.7999 C   0  0  0  0  0  0  0  0  0  0  0  0
   -0.3299   -0.4670    0.6971 O   0  0  0  0  0  0  0  0  0  0  0  0
   -1.6726   -0.5830    0.9528 C   0  0  0  0  0  0  0  0  0  0  0  0
   -2.0422   -1.2962    2.0926 C   0  0  0  0  0  0  0  0  0  0  0  0
   -3.3917   -1.4428    2.4025 C   0  0  0  0  0  0  0  0  0  0  0  0
   -3.7091   -2.1467    3.5261 O   0  0  0  0  0  0  0  0  0  0  0  0
   -4.3794   -0.8885    1.5926 C   0  0  0  0  0  0  0  0  0  0  0  0
   -4.0042   -0.1770    0.4554 C   0  0  0  0  0  0  0  0  0  0  0  0
   -5.0150    0.3479   -0.3034 O   0  0  0  0  0  0  0  0  0  0  0  0
   -2.6512   -0.0248    0.1352 C   0  0  0  0  0  0  0  0  0  0  0  0
   -1.1864    1.8436   -2.8401 H   0  0  0  0  0  0  0  0  0  0  0  0
    1.8819    0.8872    1.4552 H   0  0  0  0  0  0  0  0  0  0  0  0
    4.0010    1.1920    2.1968 H   0  0  0  0  0  0  0  0  0  0  0  0
    6.0209    0.5745   -0.0664 H   0  0  0  0  0  0  0  0  0  0  0  0
    5.1040   -0.3329   -2.9150 H   0  0  0  0  0  0  0  0  0  0  0  0
    1.5794   -0.3871   -2.6655 H   0  0  0  0  0  0  0  0  0  0  0  0
   -1.2867   -1.7382    2.7364 H   0  0  0  0  0  0  0  0  0  0  0  0
   -4.6771   -2.1835    3.6124 H   0  0  0  0  0  0  0  0  0  0  0  0
   -5.4337   -0.9978    1.8275 H   0  0  0  0  0  0  0  0  0  0  0  0
   -4.6178    0.8207   -1.0688 H   0  0  0  0  0  0  0  0  0  0  0  0
  1  2  2  0
  2  3  1  0
  3  4  1  0
  3  5  2  0
  5  6  1  0
  6  7  1  0
  7  8  2  0
  8  9  1  0
  8 10  1  0
 10 11  1  0
 10 12  2  0
 12 13  1  0
 12 14  1  0
  5 15  1  0
 15 16  1  0
 16 17  2  0
 17 18  1  0
 18 19  1  0
 18 20  2  0
 20 21  1  0
 21 22  1  0
 21 23  2  0
 23  2  1  0
 14  6  2  0
 23 16  1  0
  4 24  1  0
  7 25  1  0
  9 26  1  0
 11 27  1  0
 13 28  1  0
 14 29  1  0
 17 30  1  0
 19 31  1  0
 20 32  1  0
 22 33  1  0
M  END
