
     RDKit          3D

 46 48  0  0  0  0  0  0  0  0999 V2000
    3.7860    4.3397    0.9658 C   0  0  0  0  0  0  0  0  0  0  0  0
    3.9387    2.9357    0.8205 O   0  0  0  0  0  0  0  0  0  0  0  0
    3.0652    2.2828   -0.0142 C   0  0  0  0  0  0  0  0  0  0  0  0
    2.0264    2.9049   -0.7140 C   0  0  0  0  0  0  0  0  0  0  0  0
    1.1815    2.1591   -1.5405 C   0  0  0  0  0  0  0  0  0  0  0  0
    1.3538    0.7773   -1.6747 C   0  0  0  0  0  0  0  0  0  0  0  0
    0.4441   -0.0255   -2.5827 C   0  0  0  0  0  0  0  0  0  0  0  0
   -0.1791   -1.2493   -1.9371 C   0  0  0  0  0  0  0  0  0  0  0  0
    0.3792   -2.4352   -2.3093 N   0  0  0  0  0  0  0  0  0  0  0  0
   -0.1169   -3.5602   -1.7635 C   0  0  0  0  0  0  0  0  0  0  0  0
   -1.1519   -3.5769   -0.8490 C   0  0  0  0  0  0  0  0  0  0  0  0
   -1.7295   -2.3659   -0.4575 C   0  0  0  0  0  0  0  0  0  0  0  0
   -2.7902   -2.3501    0.4715 C   0  0  0  0  0  0  0  0  0  0  0  0
   -3.3811   -1.1515    0.8783 C   0  0  0  0  0  0  0  0  0  0  0  0
   -4.4251   -1.0476    1.7578 O   0  0  0  0  0  0  0  0  0  0  0  0
   -5.0394   -2.2525    2.1934 C   0  0  0  0  0  0  0  0  0  0  0  0
   -2.8805    0.0451    0.3571 C   0  0  0  0  0  0  0  0  0  0  0  0
   -3.4178    1.2659    0.6849 O   0  0  0  0  0  0  0  0  0  0  0  0
   -2.9546    1.6825    1.9699 C   0  0  0  0  0  0  0  0  0  0  0  0
   -1.8496    0.0453   -0.5858 C   0  0  0  0  0  0  0  0  0  0  0  0
   -1.2429   -1.1576   -1.0057 C   0  0  0  0  0  0  0  0  0  0  0  0
    2.4091    0.1571   -0.9856 C   0  0  0  0  0  0  0  0  0  0  0  0
    3.2595    0.8944   -0.1520 C   0  0  0  0  0  0  0  0  0  0  0  0
    4.3034    0.3568    0.5609 O   0  0  0  0  0  0  0  0  0  0  0  0
    4.5033   -1.0467    0.4741 C   0  0  0  0  0  0  0  0  0  0  0  0
    3.9304    4.8545    0.0103 H   0  0  0  0  0  0  0  0  0  0  0  0
    4.5622    4.6913    1.6524 H   0  0  0  0  0  0  0  0  0  0  0  0
    2.8153    4.5880    1.4076 H   0  0  0  0  0  0  0  0  0  0  0  0
    1.8472    3.9720   -0.6398 H   0  0  0  0  0  0  0  0  0  0  0  0
    0.3857    2.6712   -2.0776 H   0  0  0  0  0  0  0  0  0  0  0  0
    1.0379   -0.3387   -3.4521 H   0  0  0  0  0  0  0  0  0  0  0  0
   -0.3556    0.6037   -2.9930 H   0  0  0  0  0  0  0  0  0  0  0  0
    0.3551   -4.4820   -2.0913 H   0  0  0  0  0  0  0  0  0  0  0  0
   -1.4977   -4.5260   -0.4530 H   0  0  0  0  0  0  0  0  0  0  0  0
   -3.1415   -3.2984    0.8670 H   0  0  0  0  0  0  0  0  0  0  0  0
   -5.8873   -1.9839    2.8309 H   0  0  0  0  0  0  0  0  0  0  0  0
   -4.3475   -2.8503    2.7955 H   0  0  0  0  0  0  0  0  0  0  0  0
   -5.4286   -2.8287    1.3474 H   0  0  0  0  0  0  0  0  0  0  0  0
   -3.2644    2.7220    2.1140 H   0  0  0  0  0  0  0  0  0  0  0  0
   -1.8610    1.6456    2.0337 H   0  0  0  0  0  0  0  0  0  0  0  0
   -3.4027    1.0858    2.7704 H   0  0  0  0  0  0  0  0  0  0  0  0
   -1.5261    1.0043   -0.9782 H   0  0  0  0  0  0  0  0  0  0  0  0
    2.5465   -0.9124   -1.1186 H   0  0  0  0  0  0  0  0  0  0  0  0
    4.7572   -1.3469   -0.5478 H   0  0  0  0  0  0  0  0  0  0  0  0
    3.6310   -1.5952    0.8447 H   0  0  0  0  0  0  0  0  0  0  0  0
    5.3524   -1.3033    1.1150 H   0  0  0  0  0  0  0  0  0  0  0  0
  1  2  1  0
  2  3  1  0
  3  4  1  0
  4  5  2  0
  5  6  1  0
  6  7  1  0
  7  8  1  0
  8  9  1  0
  9 10  2  0
 10 11  1  0
 11 12  2  0
 12 13  1  0
 13 14  2  0
 14 15  1  0
 15 16  1  0
 14 17  1  0
 17 18  1  0
 18 19  1  0
 17 20  2  0
 20 21  1  0
  6 22  2  0
 22 23  1  0
 23 24  1  0
 24 25  1  0
 23  3  2  0
 21  8  2  0
 21 12  1  0
  1 26  1  0
  1 27  1  0
  1 28  1  0
  4 29  1  0
  5 30  1  0
  7 31  1  0
  7 32  1  0
 10 33  1  0
 11 34  1  0
 13 35  1  0
 16 36  1  0
 16 37  1  0
 16 38  1  0
 19 39  1  0
 19 40  1  0
 19 41  1  0
 20 42  1  0
 22 43  1  0
 25 44  1  0
 25 45  1  0
 25 46  1  0
M  END
