
     RDKit          3D

 40 42  0  0  0  0  0  0  0  0999 V2000
   -2.6110   -0.0478    2.4876 O   0  0  0  0  0  0  0  0  0  0  0  0
   -2.5573   -0.0471    1.2594 C   0  0  0  0  0  0  0  0  0  0  0  0
   -1.2661    0.2135    0.5652 C   0  0  0  0  0  0  0  0  0  0  0  0
   -0.1109    0.0814    1.2344 C   0  0  0  0  0  0  0  0  0  0  0  0
    1.1803    0.3398    0.6354 C   0  0  0  0  0  0  0  0  0  0  0  0
    2.3316    0.1894    1.3086 C   0  0  0  0  0  0  0  0  0  0  0  0
    3.6579    0.4358    0.7250 C   0  0  0  0  0  0  0  0  0  0  0  0
    3.9090    1.5472   -0.1116 C   0  0  0  0  0  0  0  0  0  0  0  0
    5.1850    1.7826   -0.6368 C   0  0  0  0  0  0  0  0  0  0  0  0
    6.1876    0.9006   -0.3014 C   0  0  0  0  0  0  0  0  0  0  0  0
    5.9573   -0.1744    0.5232 C   0  0  0  0  0  0  0  0  0  0  0  0
    4.7104   -0.4307    1.0557 C   0  0  0  0  0  0  0  0  0  0  0  0
    7.0783   -0.9155    0.7341 O   0  0  0  0  0  0  0  0  0  0  0  0
    8.0401   -0.1823   -0.0526 C   0  0  0  0  0  0  0  0  0  0  0  0
    7.4811    0.9720   -0.7135 O   0  0  0  0  0  0  0  0  0  0  0  0
   -3.6675   -0.2618    0.4545 N   0  0  0  0  0  0  0  0  0  0  0  0
   -4.9725   -0.3756    1.1054 C   0  0  0  0  0  0  0  0  0  0  0  0
   -6.0905    0.1358    0.2049 C   0  0  0  0  0  0  0  0  0  0  0  0
   -6.1483   -0.6097   -1.1284 C   0  0  0  0  0  0  0  0  0  0  0  0
   -4.8251   -1.2769   -1.4977 C   0  0  0  0  0  0  0  0  0  0  0  0
   -3.6218   -0.4879   -0.9928 C   0  0  0  0  0  0  0  0  0  0  0  0
   -1.2873    0.5441   -0.4632 H   0  0  0  0  0  0  0  0  0  0  0  0
   -0.1262   -0.2334    2.2777 H   0  0  0  0  0  0  0  0  0  0  0  0
    1.1915    0.6558   -0.4054 H   0  0  0  0  0  0  0  0  0  0  0  0
    2.3286   -0.1540    2.3412 H   0  0  0  0  0  0  0  0  0  0  0  0
    3.1103    2.2468   -0.3490 H   0  0  0  0  0  0  0  0  0  0  0  0
    5.3805    2.6335   -1.2792 H   0  0  0  0  0  0  0  0  0  0  0  0
    4.5611   -1.2873    1.7044 H   0  0  0  0  0  0  0  0  0  0  0  0
    8.4562   -0.8538   -0.8124 H   0  0  0  0  0  0  0  0  0  0  0  0
    8.8514    0.1494    0.6056 H   0  0  0  0  0  0  0  0  0  0  0  0
   -5.1265   -1.4325    1.3537 H   0  0  0  0  0  0  0  0  0  0  0  0
   -4.9743    0.1855    2.0463 H   0  0  0  0  0  0  0  0  0  0  0  0
   -5.9247    1.2024    0.0052 H   0  0  0  0  0  0  0  0  0  0  0  0
   -7.0570    0.0595    0.7155 H   0  0  0  0  0  0  0  0  0  0  0  0
   -6.4433    0.0948   -1.9155 H   0  0  0  0  0  0  0  0  0  0  0  0
   -6.9330   -1.3751   -1.0944 H   0  0  0  0  0  0  0  0  0  0  0  0
   -4.8007   -2.2822   -1.0571 H   0  0  0  0  0  0  0  0  0  0  0  0
   -4.7654   -1.4099   -2.5836 H   0  0  0  0  0  0  0  0  0  0  0  0
   -2.7055   -1.0286   -1.2515 H   0  0  0  0  0  0  0  0  0  0  0  0
   -3.5830    0.4961   -1.4744 H   0  0  0  0  0  0  0  0  0  0  0  0
  1  2  2  0
  2  3  1  0
  3  4  2  0
  4  5  1  0
  5  6  2  0
  6  7  1  0
  7  8  1  0
  8  9  2  0
  9 10  1  0
 10 11  2  0
 11 12  1  0
 11 13  1  0
 13 14  1  0
 14 15  1  0
  2 16  1  0
 16 17  1  0
 17 18  1  0
 18 19  1  0
 19 20  1  0
 20 21  1  0
 12  7  2  0
 21 16  1  0
 15 10  1  0
  3 22  1  0
  4 23  1  0
  5 24  1  0
  6 25  1  0
  8 26  1  0
  9 27  1  0
 12 28  1  0
 14 29  1  0
 14 30  1  0
 17 31  1  0
 17 32  1  0
 18 33  1  0
 18 34  1  0
 19 35  1  0
 19 36  1  0
 20 37  1  0
 20 38  1  0
 21 39  1  0
 21 40  1  0
M  END
