
     RDKit          3D

 32 34  0  0  0  0  0  0  0  0999 V2000
   -2.3836   -2.7586    0.3120 O   0  0  0  0  0  0  0  0  0  0  0  0
   -1.8095   -1.6816    0.1680 C   0  0  0  0  0  0  0  0  0  0  0  0
   -0.3320   -1.6022    0.2261 C   0  0  0  0  0  0  0  0  0  0  0  0
    0.3562   -2.7781    0.4570 O   0  0  0  0  0  0  0  0  0  0  0  0
    0.2527   -0.4007    0.0687 C   0  0  0  0  0  0  0  0  0  0  0  0
    1.7159   -0.2064    0.1154 C   0  0  0  0  0  0  0  0  0  0  0  0
    2.2612    0.7921    0.9449 C   0  0  0  0  0  0  0  0  0  0  0  0
    3.6419    1.0166    0.9929 C   0  0  0  0  0  0  0  0  0  0  0  0
    4.4790    0.2439    0.1998 C   0  0  0  0  0  0  0  0  0  0  0  0
    5.8356    0.4141    0.1990 O   0  0  0  0  0  0  0  0  0  0  0  0
    3.9489   -0.7390   -0.6312 C   0  0  0  0  0  0  0  0  0  0  0  0
    4.7806   -1.4885   -1.4140 O   0  0  0  0  0  0  0  0  0  0  0  0
    2.5803   -0.9703   -0.6819 C   0  0  0  0  0  0  0  0  0  0  0  0
   -0.4445    0.7840   -0.1320 O   0  0  0  0  0  0  0  0  0  0  0  0
   -1.8142    0.7415   -0.2053 C   0  0  0  0  0  0  0  0  0  0  0  0
   -2.4717    1.9525   -0.4298 C   0  0  0  0  0  0  0  0  0  0  0  0
   -3.8621    1.9664   -0.5091 C   0  0  0  0  0  0  0  0  0  0  0  0
   -4.5477    3.1245   -0.7278 O   0  0  0  0  0  0  0  0  0  0  0  0
   -4.6006    0.7947   -0.3667 C   0  0  0  0  0  0  0  0  0  0  0  0
   -3.9396   -0.4100   -0.1440 C   0  0  0  0  0  0  0  0  0  0  0  0
   -4.7162   -1.5288   -0.0122 O   0  0  0  0  0  0  0  0  0  0  0  0
   -2.5444   -0.4364   -0.0643 C   0  0  0  0  0  0  0  0  0  0  0  0
   -0.3304   -3.4730    0.5349 H   0  0  0  0  0  0  0  0  0  0  0  0
    1.6073    1.3998    1.5676 H   0  0  0  0  0  0  0  0  0  0  0  0
    4.0333    1.7893    1.6462 H   0  0  0  0  0  0  0  0  0  0  0  0
    6.0532    1.1172    0.8348 H   0  0  0  0  0  0  0  0  0  0  0  0
    5.6771   -1.1589   -1.2050 H   0  0  0  0  0  0  0  0  0  0  0  0
    2.1982   -1.7439   -1.3422 H   0  0  0  0  0  0  0  0  0  0  0  0
   -1.8927    2.8641   -0.5401 H   0  0  0  0  0  0  0  0  0  0  0  0
   -3.9182    3.8578   -0.8274 H   0  0  0  0  0  0  0  0  0  0  0  0
   -5.6851    0.8198   -0.4301 H   0  0  0  0  0  0  0  0  0  0  0  0
   -4.1288   -2.3020    0.1394 H   0  0  0  0  0  0  0  0  0  0  0  0
  1  2  2  0
  2  3  1  0
  3  4  1  0
  3  5  2  0
  5  6  1  0
  6  7  1  0
  7  8  2  0
  8  9  1  0
  9 10  1  0
  9 11  2  0
 11 12  1  0
 11 13  1  0
  5 14  1  0
 14 15  1  0
 15 16  2  0
 16 17  1  0
 17 18  1  0
 17 19  2  0
 19 20  1  0
 20 21  1  0
 20 22  2  0
 22  2  1  0
 13  6  2  0
 22 15  1  0
  4 23  1  0
  7 24  1  0
  8 25  1  0
 10 26  1  0
 12 27  1  0
 13 28  1  0
 16 29  1  0
 18 30  1  0
 19 31  1  0
 21 32  1  0
M  END
