
     RDKit          3D

 43 46  0  0  0  0  0  0  0  0999 V2000
   -4.0237    2.1507    0.8612 C   0  0  0  0  0  0  0  0  0  0  0  0
   -2.9747    1.2571    0.3746 N   0  0  0  0  0  0  0  0  0  0  0  0
   -2.6492    0.1796    1.3406 C   0  0  2  0  0  0  0  0  0  0  0  0
   -1.2549   -0.3263    0.9443 C   0  0  0  0  0  0  0  0  0  0  0  0
   -1.1417   -0.7520   -0.5369 C   0  0  0  0  0  0  0  0  0  0  0  0
    0.2148   -0.5707   -1.0073 O   0  0  0  0  0  0  0  0  0  0  0  0
    1.1350   -1.4860   -0.5907 C   0  0  0  0  0  0  0  0  0  0  0  0
    0.8915   -2.4684    0.1017 O   0  0  0  0  0  0  0  0  0  0  0  0
    2.5153   -1.1230   -1.1081 C   0  0  0  0  0  0  0  0  0  0  0  0
    3.4287   -2.3630   -1.1297 C   0  0  0  0  0  0  0  0  0  0  0  0
    3.5866   -3.0001    0.1367 O   0  0  0  0  0  0  0  0  0  0  0  0
    3.1003    0.0748   -0.3770 C   0  0  0  0  0  0  0  0  0  0  0  0
    3.4838    0.0055    0.9704 C   0  0  0  0  0  0  0  0  0  0  0  0
    4.0007    1.1263    1.6237 C   0  0  0  0  0  0  0  0  0  0  0  0
    4.1357    2.3330    0.9422 C   0  0  0  0  0  0  0  0  0  0  0  0
    3.7521    2.4210   -0.3933 C   0  0  0  0  0  0  0  0  0  0  0  0
    3.2363    1.3011   -1.0485 C   0  0  0  0  0  0  0  0  0  0  0  0
   -2.0722    0.0339   -1.4875 C   0  0  0  0  0  0  0  0  0  0  0  0
   -3.3809    0.5024   -0.8348 C   0  0  1  0  0  0  0  0  0  0  0  0
   -4.2288   -0.6143   -0.2777 C   0  0  1  0  0  0  0  0  0  0  0  0
   -3.6125   -1.8347    0.1271 O   0  0  0  0  0  0  0  0  0  0  0  0
   -3.7556   -0.8247    1.1249 C   0  0  1  0  0  0  0  0  0  0  0  0
   -4.2388    2.9199    0.1113 H   0  0  0  0  0  0  0  0  0  0  0  0
   -4.9624    1.6405    1.1026 H   0  0  0  0  0  0  0  0  0  0  0  0
   -3.6821    2.6758    1.7600 H   0  0  0  0  0  0  0  0  0  0  0  0
   -2.6309    0.5435    2.3740 H   0  0  0  0  0  0  0  0  0  0  0  0
   -0.5144    0.4583    1.1519 H   0  0  0  0  0  0  0  0  0  0  0  0
   -0.9776   -1.1749    1.5818 H   0  0  0  0  0  0  0  0  0  0  0  0
   -1.3836   -1.8172   -0.6356 H   0  0  0  0  0  0  0  0  0  0  0  0
    2.3826   -0.8518   -2.1656 H   0  0  0  0  0  0  0  0  0  0  0  0
    3.0239   -3.1146   -1.8174 H   0  0  0  0  0  0  0  0  0  0  0  0
    4.4280   -2.0937   -1.4886 H   0  0  0  0  0  0  0  0  0  0  0  0
    2.6894   -3.2503    0.4423 H   0  0  0  0  0  0  0  0  0  0  0  0
    3.3871   -0.9226    1.5304 H   0  0  0  0  0  0  0  0  0  0  0  0
    4.2981    1.0543    2.6667 H   0  0  0  0  0  0  0  0  0  0  0  0
    4.5376    3.2040    1.4525 H   0  0  0  0  0  0  0  0  0  0  0  0
    3.8518    3.3634   -0.9256 H   0  0  0  0  0  0  0  0  0  0  0  0
    2.9357    1.3984   -2.0897 H   0  0  0  0  0  0  0  0  0  0  0  0
   -1.5345    0.9085   -1.8792 H   0  0  0  0  0  0  0  0  0  0  0  0
   -2.2923   -0.5930   -2.3609 H   0  0  0  0  0  0  0  0  0  0  0  0
   -3.9444    1.1239   -1.5398 H   0  0  0  0  0  0  0  0  0  0  0  0
   -5.2862   -0.5655   -0.4831 H   0  0  0  0  0  0  0  0  0  0  0  0
   -4.4735   -0.9292    1.9225 H   0  0  0  0  0  0  0  0  0  0  0  0
  1  2  1  0
  2  3  1  0
  3  4  1  0
  4  5  1  0
  5  6  1  0
  6  7  1  0
  7  8  2  0
  7  9  1  0
  9 10  1  0
 10 11  1  0
  9 12  1  0
 12 13  2  0
 13 14  1  0
 14 15  2  0
 15 16  1  0
 16 17  2  0
  5 18  1  0
 18 19  1  0
 19 20  1  0
 20 21  1  0
 21 22  1  0
 19  2  1  0
 22 20  1  0
 22  3  1  0
 17 12  1  0
  1 23  1  0
  1 24  1  0
  1 25  1  0
  3 26  1  1
  4 27  1  0
  4 28  1  0
  5 29  1  0
  9 30  1  0
 10 31  1  0
 10 32  1  0
 11 33  1  0
 13 34  1  0
 14 35  1  0
 15 36  1  0
 16 37  1  0
 17 38  1  0
 18 39  1  0
 18 40  1  0
 19 41  1  6
 20 42  1  1
 22 43  1  1
M  END
