
     RDKit          3D

 22 23  0  0  0  0  0  0  0  0999 V2000
   -3.3704    0.0240    0.9304 C   0  0  0  0  0  0  0  0  0  0  0  0
   -2.7449   -0.5609   -0.2061 O   0  0  0  0  0  0  0  0  0  0  0  0
   -1.3858   -0.4083   -0.3103 C   0  0  0  0  0  0  0  0  0  0  0  0
   -0.5601    0.2664    0.5935 C   0  0  0  0  0  0  0  0  0  0  0  0
    0.8190    0.3422    0.3564 C   0  0  0  0  0  0  0  0  0  0  0  0
    1.7172    1.0335    1.2686 C   0  0  0  0  0  0  0  0  0  0  0  0
    3.0253    1.0779    0.9981 C   0  0  0  0  0  0  0  0  0  0  0  0
    3.6093    0.4494   -0.2001 C   0  0  0  0  0  0  0  0  0  0  0  0
    4.8145    0.5124   -0.4127 O   0  0  0  0  0  0  0  0  0  0  0  0
    2.7341   -0.2042   -1.0558 O   0  0  0  0  0  0  0  0  0  0  0  0
    1.3527   -0.2597   -0.7843 C   0  0  0  0  0  0  0  0  0  0  0  0
    0.5502   -0.9353   -1.6956 C   0  0  0  0  0  0  0  0  0  0  0  0
   -0.8132   -1.0009   -1.4458 C   0  0  0  0  0  0  0  0  0  0  0  0
   -1.6023   -1.6667   -2.3444 O   0  0  0  0  0  0  0  0  0  0  0  0
   -3.2421    1.1114    0.9350 H   0  0  0  0  0  0  0  0  0  0  0  0
   -4.4425   -0.1848    0.8657 H   0  0  0  0  0  0  0  0  0  0  0  0
   -2.9990   -0.4231    1.8584 H   0  0  0  0  0  0  0  0  0  0  0  0
   -0.9661    0.7370    1.4824 H   0  0  0  0  0  0  0  0  0  0  0  0
    1.3136    1.5047    2.1579 H   0  0  0  0  0  0  0  0  0  0  0  0
    3.7269    1.5822    1.6514 H   0  0  0  0  0  0  0  0  0  0  0  0
    0.9739   -1.4000   -2.5794 H   0  0  0  0  0  0  0  0  0  0  0  0
   -2.5101   -1.5971   -1.9898 H   0  0  0  0  0  0  0  0  0  0  0  0
  1  2  1  0
  2  3  1  0
  3  4  2  0
  4  5  1  0
  5  6  1  0
  6  7  2  0
  7  8  1  0
  8  9  2  0
  8 10  1  0
 10 11  1  0
 11 12  1  0
 12 13  2  0
 13 14  1  0
 13  3  1  0
 11  5  2  0
  1 15  1  0
  1 16  1  0
  1 17  1  0
  4 18  1  0
  6 19  1  0
  7 20  1  0
 12 21  1  0
 14 22  1  0
M  END
