
     RDKit          3D

 28 28  0  0  0  0  0  0  0  0999 V2000
   -1.7694    3.6576   -0.6979 C   0  0  0  0  0  0  0  0  0  0  0  0
   -2.4054    2.4179   -0.4086 O   0  0  0  0  0  0  0  0  0  0  0  0
   -1.5856    1.3455   -0.1589 C   0  0  0  0  0  0  0  0  0  0  0  0
   -0.1915    1.3605   -0.1630 C   0  0  0  0  0  0  0  0  0  0  0  0
    0.5310    0.1859    0.0993 C   0  0  0  0  0  0  0  0  0  0  0  0
    1.9997    0.2537    0.1074 C   0  0  0  0  0  0  0  0  0  0  0  0
    2.7934   -0.7111   -0.3810 C   0  0  0  0  0  0  0  0  0  0  0  0
    4.2509   -0.5403   -0.3418 C   0  0  0  0  0  0  0  0  0  0  0  0
    4.8738    0.4147    0.0793 O   0  0  0  0  0  0  0  0  0  0  0  0
    4.8553   -1.6240   -0.8532 O   0  0  0  0  0  0  0  0  0  0  0  0
   -0.1586   -1.0027    0.3955 C   0  0  0  0  0  0  0  0  0  0  0  0
   -1.5558   -1.0357    0.4043 C   0  0  0  0  0  0  0  0  0  0  0  0
   -2.3175   -2.1413    0.6741 O   0  0  0  0  0  0  0  0  0  0  0  0
   -1.6389   -3.3527    0.9705 C   0  0  0  0  0  0  0  0  0  0  0  0
   -2.2522    0.1447    0.1224 C   0  0  0  0  0  0  0  0  0  0  0  0
   -3.6273    0.1390    0.1235 O   0  0  0  0  0  0  0  0  0  0  0  0
   -1.1669    3.9991    0.1502 H   0  0  0  0  0  0  0  0  0  0  0  0
   -1.1679    3.5887   -1.6103 H   0  0  0  0  0  0  0  0  0  0  0  0
   -2.5526    4.4019   -0.8709 H   0  0  0  0  0  0  0  0  0  0  0  0
    0.3575    2.2722   -0.3767 H   0  0  0  0  0  0  0  0  0  0  0  0
    2.4334    1.1638    0.5199 H   0  0  0  0  0  0  0  0  0  0  0  0
    2.4157   -1.6232   -0.8255 H   0  0  0  0  0  0  0  0  0  0  0  0
    5.8102   -1.4152   -0.7838 H   0  0  0  0  0  0  0  0  0  0  0  0
    0.4139   -1.8937    0.6300 H   0  0  0  0  0  0  0  0  0  0  0  0
   -1.0291   -3.6818    0.1226 H   0  0  0  0  0  0  0  0  0  0  0  0
   -2.3939   -4.1229    1.1553 H   0  0  0  0  0  0  0  0  0  0  0  0
   -1.0347   -3.2550    1.8784 H   0  0  0  0  0  0  0  0  0  0  0  0
   -3.8874    1.0545   -0.0900 H   0  0  0  0  0  0  0  0  0  0  0  0
  1  2  1  0
  2  3  1  0
  3  4  2  0
  4  5  1  0
  5  6  1  0
  6  7  2  0
  7  8  1  0
  8  9  2  0
  8 10  1  0
  5 11  2  0
 11 12  1  0
 12 13  1  0
 13 14  1  0
 12 15  2  0
 15 16  1  0
 15  3  1  0
  1 17  1  0
  1 18  1  0
  1 19  1  0
  4 20  1  0
  6 21  1  0
  7 22  1  0
 10 23  1  0
 11 24  1  0
 14 25  1  0
 14 26  1  0
 14 27  1  0
 16 28  1  0
M  END
