
     RDKit          3D

 80 79  0  0  0  0  0  0  0  0999 V2000
    7.8041    3.0482   -2.2454 C   0  0  0  0  0  0  0  0  0  0  0  0
    7.7990    1.5418   -2.1987 C   0  0  0  0  0  0  0  0  0  0  0  0
    6.9246    0.8992   -3.2395 C   0  0  0  0  0  0  0  0  0  0  0  0
    8.5370    0.8845   -1.2822 C   0  0  0  0  0  0  0  0  0  0  0  0
    8.6475   -0.6041   -1.0689 C   0  0  0  0  0  0  0  0  0  0  0  0
    8.5229   -1.0173    0.4106 C   0  0  0  0  0  0  0  0  0  0  0  0
    7.1745   -0.9053    1.1139 C   0  0  0  0  0  0  0  0  0  0  0  0
    7.2635   -1.1958    2.5925 C   0  0  0  0  0  0  0  0  0  0  0  0
    6.0204   -0.6011    0.4865 C   0  0  0  0  0  0  0  0  0  0  0  0
    4.6541   -0.4248    1.0984 C   0  0  0  0  0  0  0  0  0  0  0  0
    3.7690   -1.6556    0.8564 C   0  0  0  0  0  0  0  0  0  0  0  0
    2.3389   -1.6184    1.3845 C   0  0  0  0  0  0  0  0  0  0  0  0
    1.5848   -2.8946    1.0979 C   0  0  0  0  0  0  0  0  0  0  0  0
    1.8010   -0.5590    2.0240 C   0  0  0  0  0  0  0  0  0  0  0  0
    0.4153   -0.4320    2.6074 C   0  0  0  0  0  0  0  0  0  0  0  0
   -0.4914    0.5110    1.8072 C   0  0  0  0  0  0  0  0  0  0  0  0
   -0.8694   -0.0424    0.4578 C   0  0  0  0  0  0  0  0  0  0  0  0
   -2.0567   -0.5647    0.0889 C   0  0  0  0  0  0  0  0  0  0  0  0
   -3.2161   -0.7508    1.0299 C   0  0  0  0  0  0  0  0  0  0  0  0
   -2.2630   -1.0636   -1.3316 C   0  0  0  0  0  0  0  0  0  0  0  0
   -3.0970   -0.1253   -2.2184 C   0  0  0  0  0  0  0  0  0  0  0  0
   -4.5802   -0.2327   -1.9783 C   0  0  0  0  0  0  0  0  0  0  0  0
   -5.4354    0.7270   -1.5707 C   0  0  0  0  0  0  0  0  0  0  0  0
   -5.0567    2.1523   -1.2677 C   0  0  0  0  0  0  0  0  0  0  0  0
   -6.9112    0.4076   -1.4028 C   0  0  0  0  0  0  0  0  0  0  0  0
   -7.3176    0.2630    0.0682 C   0  0  0  0  0  0  0  0  0  0  0  0
   -8.7682   -0.1165    0.2030 C   0  0  0  0  0  0  0  0  0  0  0  0
   -9.7982    0.6805    0.5484 C   0  0  0  0  0  0  0  0  0  0  0  0
  -11.1926    0.1237    0.6710 C   0  0  0  0  0  0  0  0  0  0  0  0
   -9.6940    2.1547    0.8273 C   0  0  0  0  0  0  0  0  0  0  0  0
    6.7904    3.4346   -2.0967 H   0  0  0  0  0  0  0  0  0  0  0  0
    8.1709    3.3964   -3.2166 H   0  0  0  0  0  0  0  0  0  0  0  0
    8.4431    3.4873   -1.4721 H   0  0  0  0  0  0  0  0  0  0  0  0
    6.9912   -0.1903   -3.2545 H   0  0  0  0  0  0  0  0  0  0  0  0
    5.8769    1.1661   -3.0661 H   0  0  0  0  0  0  0  0  0  0  0  0
    7.2087    1.2504   -4.2373 H   0  0  0  0  0  0  0  0  0  0  0  0
    9.1439    1.4757   -0.5958 H   0  0  0  0  0  0  0  0  0  0  0  0
    9.6452   -0.9037   -1.4150 H   0  0  0  0  0  0  0  0  0  0  0  0
    7.9344   -1.1750   -1.6691 H   0  0  0  0  0  0  0  0  0  0  0  0
    8.8375   -2.0674    0.4817 H   0  0  0  0  0  0  0  0  0  0  0  0
    9.2565   -0.4388    0.9890 H   0  0  0  0  0  0  0  0  0  0  0  0
    7.8044   -2.1339    2.7594 H   0  0  0  0  0  0  0  0  0  0  0  0
    7.8039   -0.3913    3.1016 H   0  0  0  0  0  0  0  0  0  0  0  0
    6.2900   -1.3093    3.0747 H   0  0  0  0  0  0  0  0  0  0  0  0
    6.0273   -0.4326   -0.5880 H   0  0  0  0  0  0  0  0  0  0  0  0
    4.7226   -0.2041    2.1683 H   0  0  0  0  0  0  0  0  0  0  0  0
    4.1987    0.4599    0.6352 H   0  0  0  0  0  0  0  0  0  0  0  0
    3.7206   -1.8404   -0.2256 H   0  0  0  0  0  0  0  0  0  0  0  0
    4.2652   -2.5289    1.3016 H   0  0  0  0  0  0  0  0  0  0  0  0
    0.5258   -2.8503    1.3589 H   0  0  0  0  0  0  0  0  0  0  0  0
    2.0312   -3.7264    1.6527 H   0  0  0  0  0  0  0  0  0  0  0  0
    1.6345   -3.1275    0.0286 H   0  0  0  0  0  0  0  0  0  0  0  0
    2.4042    0.3337    2.1767 H   0  0  0  0  0  0  0  0  0  0  0  0
    0.5282   -0.0242    3.6205 H   0  0  0  0  0  0  0  0  0  0  0  0
   -0.0716   -1.4028    2.7401 H   0  0  0  0  0  0  0  0  0  0  0  0
   -1.3832    0.7359    2.4021 H   0  0  0  0  0  0  0  0  0  0  0  0
    0.0097    1.4757    1.6552 H   0  0  0  0  0  0  0  0  0  0  0  0
   -0.0740    0.0216   -0.2850 H   0  0  0  0  0  0  0  0  0  0  0  0
   -2.8986   -0.8190    2.0744 H   0  0  0  0  0  0  0  0  0  0  0  0
   -3.7465   -1.6837    0.8109 H   0  0  0  0  0  0  0  0  0  0  0  0
   -3.9211    0.0799    0.9410 H   0  0  0  0  0  0  0  0  0  0  0  0
   -1.2844   -1.1900   -1.8149 H   0  0  0  0  0  0  0  0  0  0  0  0
   -2.7025   -2.0691   -1.3077 H   0  0  0  0  0  0  0  0  0  0  0  0
   -2.9269   -0.4091   -3.2652 H   0  0  0  0  0  0  0  0  0  0  0  0
   -2.7251    0.8984   -2.1247 H   0  0  0  0  0  0  0  0  0  0  0  0
   -4.9824   -1.2273   -2.1741 H   0  0  0  0  0  0  0  0  0  0  0  0
   -5.6506    2.8371   -1.8824 H   0  0  0  0  0  0  0  0  0  0  0  0
   -5.2464    2.3825   -0.2147 H   0  0  0  0  0  0  0  0  0  0  0  0
   -4.0066    2.3773   -1.4614 H   0  0  0  0  0  0  0  0  0  0  0  0
   -7.5047    1.1959   -1.8842 H   0  0  0  0  0  0  0  0  0  0  0  0
   -7.1602   -0.5179   -1.9397 H   0  0  0  0  0  0  0  0  0  0  0  0
   -7.0932    1.1777    0.6252 H   0  0  0  0  0  0  0  0  0  0  0  0
   -6.7178   -0.5247    0.5427 H   0  0  0  0  0  0  0  0  0  0  0  0
   -8.9699   -1.1697    0.0064 H   0  0  0  0  0  0  0  0  0  0  0  0
  -11.2305   -0.9518    0.4684 H   0  0  0  0  0  0  0  0  0  0  0  0
  -11.8632    0.6194   -0.0386 H   0  0  0  0  0  0  0  0  0  0  0  0
  -11.5763    0.2844    1.6838 H   0  0  0  0  0  0  0  0  0  0  0  0
   -8.7090    2.5702    0.6025 H   0  0  0  0  0  0  0  0  0  0  0  0
   -9.9129    2.3547    1.8811 H   0  0  0  0  0  0  0  0  0  0  0  0
  -10.4165    2.7049    0.2149 H   0  0  0  0  0  0  0  0  0  0  0  0
  1  2  1  0
  2  3  1  0
  2  4  2  3
  4  5  1  0
  5  6  1  0
  6  7  1  0
  7  8  1  0
  7  9  2  0
  9 10  1  0
 10 11  1  0
 11 12  1  0
 12 13  1  0
 12 14  2  0
 14 15  1  0
 15 16  1  0
 16 17  1  0
 17 18  2  0
 18 19  1  0
 18 20  1  0
 20 21  1  0
 21 22  1  0
 22 23  2  0
 23 24  1  0
 23 25  1  0
 25 26  1  0
 26 27  1  0
 27 28  2  3
 28 29  1  0
 28 30  1  0
  1 31  1  0
  1 32  1  0
  1 33  1  0
  3 34  1  0
  3 35  1  0
  3 36  1  0
  4 37  1  0
  5 38  1  0
  5 39  1  0
  6 40  1  0
  6 41  1  0
  8 42  1  0
  8 43  1  0
  8 44  1  0
  9 45  1  0
 10 46  1  0
 10 47  1  0
 11 48  1  0
 11 49  1  0
 13 50  1  0
 13 51  1  0
 13 52  1  0
 14 53  1  0
 15 54  1  0
 15 55  1  0
 16 56  1  0
 16 57  1  0
 17 58  1  0
 19 59  1  0
 19 60  1  0
 19 61  1  0
 20 62  1  0
 20 63  1  0
 21 64  1  0
 21 65  1  0
 22 66  1  0
 24 67  1  0
 24 68  1  0
 24 69  1  0
 25 70  1  0
 25 71  1  0
 26 72  1  0
 26 73  1  0
 27 74  1  0
 29 75  1  0
 29 76  1  0
 29 77  1  0
 30 78  1  0
 30 79  1  0
 30 80  1  0
M  END
