
     RDKit          3D

 47 53  0  0  0  0  0  0  0  0999 V2000
    1.4886    3.7564    0.7264 O   0  0  0  0  0  0  0  0  0  0  0  0
    0.7242    2.8018    0.6346 C   0  0  0  0  0  0  0  0  0  0  0  0
   -0.7940    2.9880    0.6205 C   0  0  0  0  0  0  0  0  0  0  0  0
   -1.4387    2.2125   -0.5502 C   0  0  2  0  0  0  0  0  0  0  0  0
   -2.8608    2.1098   -0.5069 O   0  0  0  0  0  0  0  0  0  0  0  0
   -3.4589    1.3986    0.5629 C   0  0  0  0  0  0  0  0  0  0  0  0
   -3.2606   -0.0897    0.5401 C   0  0  0  0  0  0  0  0  0  0  0  0
   -2.4860   -0.8372   -0.2710 C   0  0  0  0  0  0  0  0  0  0  0  0
   -2.2879   -2.3204   -0.0275 C   0  0  0  0  0  0  0  0  0  0  0  0
   -0.8714   -2.6426    0.2193 N   0  0  0  0  0  0  0  0  0  0  0  0
   -0.4667   -2.3853    1.6094 C   0  0  0  0  0  0  0  0  0  0  0  0
    0.8844   -1.6930    1.5358 C   0  0  0  0  0  0  0  0  0  0  0  0
    0.8231   -0.9251    0.2090 C   0  0  2  0  0  0  0  0  0  0  0  0
    2.2003   -0.4267   -0.1575 C   0  0  0  0  0  0  0  0  0  0  0  0
    3.2795   -1.1483   -0.6458 C   0  0  0  0  0  0  0  0  0  0  0  0
    4.4877   -0.4781   -0.8528 C   0  0  0  0  0  0  0  0  0  0  0  0
    4.6077    0.8916   -0.5676 C   0  0  0  0  0  0  0  0  0  0  0  0
    3.5198    1.6170   -0.0758 C   0  0  0  0  0  0  0  0  0  0  0  0
    2.3281    0.9462    0.1240 C   0  0  0  0  0  0  0  0  0  0  0  0
    1.0930    1.4680    0.5353 N   0  0  0  0  0  0  0  0  0  0  0  0
    0.0755    0.4314    0.3670 C   0  0  1  0  0  0  0  0  0  0  0  0
   -0.7447    0.8738   -0.8553 C   0  0  1  0  0  0  0  0  0  0  0  0
   -1.6169   -0.2633   -1.3759 C   0  0  1  0  0  0  0  0  0  0  0  0
   -0.6300   -1.3301   -1.8879 C   0  0  0  0  0  0  0  0  0  0  0  0
    0.0872   -1.9483   -0.6865 C   0  0  2  0  0  0  0  0  0  0  0  0
   -1.1816    2.6793    1.5961 H   0  0  0  0  0  0  0  0  0  0  0  0
   -1.0278    4.0543    0.5219 H   0  0  0  0  0  0  0  0  0  0  0  0
   -1.2636    2.8350   -1.4392 H   0  0  0  0  0  0  0  0  0  0  0  0
   -3.1382    1.8058    1.5260 H   0  0  0  0  0  0  0  0  0  0  0  0
   -4.5360    1.5874    0.4926 H   0  0  0  0  0  0  0  0  0  0  0  0
   -3.8073   -0.5997    1.3334 H   0  0  0  0  0  0  0  0  0  0  0  0
   -2.9064   -2.6869    0.8018 H   0  0  0  0  0  0  0  0  0  0  0  0
   -2.6391   -2.8770   -0.9057 H   0  0  0  0  0  0  0  0  0  0  0  0
   -0.4002   -3.3227    2.1710 H   0  0  0  0  0  0  0  0  0  0  0  0
   -1.1750   -1.7370    2.1392 H   0  0  0  0  0  0  0  0  0  0  0  0
    1.0618   -1.0491    2.4044 H   0  0  0  0  0  0  0  0  0  0  0  0
    1.6817   -2.4481    1.5161 H   0  0  0  0  0  0  0  0  0  0  0  0
    3.2045   -2.2117   -0.8503 H   0  0  0  0  0  0  0  0  0  0  0  0
    5.3495   -1.0231   -1.2320 H   0  0  0  0  0  0  0  0  0  0  0  0
    5.5571    1.3955   -0.7337 H   0  0  0  0  0  0  0  0  0  0  0  0
    3.6193    2.6771    0.1319 H   0  0  0  0  0  0  0  0  0  0  0  0
   -0.5446    0.4316    1.2721 H   0  0  0  0  0  0  0  0  0  0  0  0
   -0.0296    1.1147   -1.6601 H   0  0  0  0  0  0  0  0  0  0  0  0
   -2.2404    0.0686   -2.2144 H   0  0  0  0  0  0  0  0  0  0  0  0
   -1.1585   -2.1017   -2.4627 H   0  0  0  0  0  0  0  0  0  0  0  0
    0.0996   -0.8935   -2.5814 H   0  0  0  0  0  0  0  0  0  0  0  0
    0.7923   -2.7057   -1.0508 H   0  0  0  0  0  0  0  0  0  0  0  0
  1  2  2  0
  2  3  1  0
  3  4  1  0
  4  5  1  0
  5  6  1  0
  6  7  1  0
  7  8  2  0
  8  9  1  0
  9 10  1  0
 10 11  1  0
 11 12  1  0
 13 12  1  1
 13 14  1  0
 14 15  2  0
 15 16  1  0
 16 17  2  0
 17 18  1  0
 18 19  2  0
 19 20  1  0
 20 21  1  0
 21 22  1  0
 22 23  1  0
 23 24  1  0
 24 25  1  0
 20  2  1  0
 22  4  1  0
 23  8  1  0
 25 10  1  0
 21 13  1  0
 25 13  1  0
 19 14  1  0
  3 26  1  0
  3 27  1  0
  4 28  1  6
  6 29  1  0
  6 30  1  0
  7 31  1  0
  9 32  1  0
  9 33  1  0
 11 34  1  0
 11 35  1  0
 12 36  1  0
 12 37  1  0
 15 38  1  0
 16 39  1  0
 17 40  1  0
 18 41  1  0
 21 42  1  1
 22 43  1  6
 23 44  1  6
 24 45  1  0
 24 46  1  0
 25 47  1  6
M  END
