
     RDKit          3D

 47 49  0  0  0  0  0  0  0  0999 V2000
    7.3838   -0.4818   -2.1427 C   0  0  0  0  0  0  0  0  0  0  0  0
    6.9634    0.1452   -0.9375 O   0  0  0  0  0  0  0  0  0  0  0  0
    5.6416    0.0284   -0.6090 C   0  0  0  0  0  0  0  0  0  0  0  0
    4.6660   -0.6346   -1.3503 C   0  0  0  0  0  0  0  0  0  0  0  0
    3.3418   -0.6760   -0.8939 C   0  0  0  0  0  0  0  0  0  0  0  0
    2.9702   -0.0633    0.3122 C   0  0  0  0  0  0  0  0  0  0  0  0
    1.5644   -0.1122    0.7618 C   0  0  0  0  0  0  0  0  0  0  0  0
    1.2342   -0.2766    2.0485 C   0  0  0  0  0  0  0  0  0  0  0  0
   -0.1862   -0.3120    2.4348 C   0  0  0  0  0  0  0  0  0  0  0  0
   -0.4777   -0.3667    3.6218 O   0  0  0  0  0  0  0  0  0  0  0  0
   -1.1770   -0.2508    1.3381 C   0  0  0  0  0  0  0  0  0  0  0  0
   -2.5586   -0.3591    1.5540 C   0  0  0  0  0  0  0  0  0  0  0  0
   -3.0605   -0.6140    2.8058 O   0  0  0  0  0  0  0  0  0  0  0  0
   -3.4896    0.5971    3.4290 C   0  0  0  0  0  0  0  0  0  0  0  0
   -3.4488   -0.3225    0.4646 C   0  0  0  0  0  0  0  0  0  0  0  0
   -4.7931   -0.4941    0.6939 O   0  0  0  0  0  0  0  0  0  0  0  0
   -5.1171   -1.8858    0.6495 C   0  0  0  0  0  0  0  0  0  0  0  0
   -2.9749   -0.0917   -0.8330 C   0  0  0  0  0  0  0  0  0  0  0  0
   -3.7761   -0.0422   -1.9455 O   0  0  0  0  0  0  0  0  0  0  0  0
   -4.8914    0.8376   -1.8210 C   0  0  0  0  0  0  0  0  0  0  0  0
   -1.5930    0.0162   -1.0371 C   0  0  0  0  0  0  0  0  0  0  0  0
   -1.0940    0.1454   -2.3128 O   0  0  0  0  0  0  0  0  0  0  0  0
   -1.0198    1.5237   -2.6762 C   0  0  0  0  0  0  0  0  0  0  0  0
   -0.6976   -0.0783    0.0382 C   0  0  0  0  0  0  0  0  0  0  0  0
    0.6413    0.0095   -0.2594 O   0  0  0  0  0  0  0  0  0  0  0  0
    3.9577    0.6097    1.0438 C   0  0  0  0  0  0  0  0  0  0  0  0
    5.2793    0.6505    0.5866 C   0  0  0  0  0  0  0  0  0  0  0  0
    7.2298   -1.5650   -2.0991 H   0  0  0  0  0  0  0  0  0  0  0  0
    6.8801   -0.0448   -3.0113 H   0  0  0  0  0  0  0  0  0  0  0  0
    8.4574   -0.3026   -2.2558 H   0  0  0  0  0  0  0  0  0  0  0  0
    4.8956   -1.1297   -2.2879 H   0  0  0  0  0  0  0  0  0  0  0  0
    2.5998   -1.2010   -1.4937 H   0  0  0  0  0  0  0  0  0  0  0  0
    1.9532   -0.3870    2.8500 H   0  0  0  0  0  0  0  0  0  0  0  0
   -3.7391    0.3677    4.4692 H   0  0  0  0  0  0  0  0  0  0  0  0
   -2.6993    1.3562    3.4287 H   0  0  0  0  0  0  0  0  0  0  0  0
   -4.3890    0.9901    2.9439 H   0  0  0  0  0  0  0  0  0  0  0  0
   -4.6060   -2.4418    1.4427 H   0  0  0  0  0  0  0  0  0  0  0  0
   -6.1950   -1.9817    0.8105 H   0  0  0  0  0  0  0  0  0  0  0  0
   -4.8819   -2.3169   -0.3299 H   0  0  0  0  0  0  0  0  0  0  0  0
   -5.7740    0.2855   -1.4860 H   0  0  0  0  0  0  0  0  0  0  0  0
   -4.6885    1.6882   -1.1602 H   0  0  0  0  0  0  0  0  0  0  0  0
   -5.1106    1.2362   -2.8164 H   0  0  0  0  0  0  0  0  0  0  0  0
   -2.0125    1.9856   -2.6976 H   0  0  0  0  0  0  0  0  0  0  0  0
   -0.5985    1.5816   -3.6842 H   0  0  0  0  0  0  0  0  0  0  0  0
   -0.3586    2.0779   -2.0009 H   0  0  0  0  0  0  0  0  0  0  0  0
    3.7157    1.1229    1.9714 H   0  0  0  0  0  0  0  0  0  0  0  0
    6.0329    1.1770    1.1678 H   0  0  0  0  0  0  0  0  0  0  0  0
  1  2  1  0
  2  3  1  0
  3  4  1  0
  4  5  2  0
  5  6  1  0
  6  7  1  0
  7  8  2  0
  8  9  1  0
  9 10  2  0
  9 11  1  0
 11 12  1  0
 12 13  1  0
 13 14  1  0
 12 15  2  0
 15 16  1  0
 16 17  1  0
 15 18  1  0
 18 19  1  0
 19 20  1  0
 18 21  2  0
 21 22  1  0
 22 23  1  0
 21 24  1  0
 24 25  1  0
  6 26  2  0
 26 27  1  0
 27  3  2  0
 25  7  1  0
 24 11  2  0
  1 28  1  0
  1 29  1  0
  1 30  1  0
  4 31  1  0
  5 32  1  0
  8 33  1  0
 14 34  1  0
 14 35  1  0
 14 36  1  0
 17 37  1  0
 17 38  1  0
 17 39  1  0
 20 40  1  0
 20 41  1  0
 20 42  1  0
 23 43  1  0
 23 44  1  0
 23 45  1  0
 26 46  1  0
 27 47  1  0
M  END
