
     RDKit          3D

 25 25  0  0  0  0  0  0  0  0999 V2000
   -3.8275   -0.1691   -0.2479 C   0  0  0  0  0  0  0  0  0  0  0  0
   -2.3314   -0.1469   -0.1461 C   0  0  0  0  0  0  0  0  0  0  0  0
   -1.6844    0.8705    0.5603 C   0  0  0  0  0  0  0  0  0  0  0  0
   -0.2888    0.9095    0.6291 C   0  0  0  0  0  0  0  0  0  0  0  0
    0.4975   -0.0613   -0.0140 C   0  0  0  0  0  0  0  0  0  0  0  0
    2.0153   -0.0096    0.0666 C   0  0  0  0  0  0  0  0  0  0  0  0
    2.5071   -0.1354    1.5118 C   0  0  0  0  0  0  0  0  0  0  0  0
    2.5674    1.2604   -0.5874 C   0  0  0  0  0  0  0  0  0  0  0  0
   -0.1641   -1.0659   -0.7318 C   0  0  0  0  0  0  0  0  0  0  0  0
    0.5729   -2.0205   -1.3770 O   0  0  0  0  0  0  0  0  0  0  0  0
   -1.5595   -1.1105   -0.8045 C   0  0  0  0  0  0  0  0  0  0  0  0
   -4.1514    0.4009   -1.1241 H   0  0  0  0  0  0  0  0  0  0  0  0
   -4.2868    0.2651    0.6464 H   0  0  0  0  0  0  0  0  0  0  0  0
   -4.1976   -1.1959   -0.3362 H   0  0  0  0  0  0  0  0  0  0  0  0
   -2.2612    1.6427    1.0647 H   0  0  0  0  0  0  0  0  0  0  0  0
    0.1817    1.7129    1.1914 H   0  0  0  0  0  0  0  0  0  0  0  0
    2.4414   -0.8573   -0.4829 H   0  0  0  0  0  0  0  0  0  0  0  0
    2.1951    0.7143    2.1285 H   0  0  0  0  0  0  0  0  0  0  0  0
    3.6012   -0.1823    1.5424 H   0  0  0  0  0  0  0  0  0  0  0  0
    2.1195   -1.0478    1.9786 H   0  0  0  0  0  0  0  0  0  0  0  0
    2.2275    1.3449   -1.6257 H   0  0  0  0  0  0  0  0  0  0  0  0
    2.2521    2.1660   -0.0579 H   0  0  0  0  0  0  0  0  0  0  0  0
    3.6627    1.2446   -0.5937 H   0  0  0  0  0  0  0  0  0  0  0  0
   -0.0328   -2.6368   -1.8188 H   0  0  0  0  0  0  0  0  0  0  0  0
   -2.0560   -1.8925   -1.3717 H   0  0  0  0  0  0  0  0  0  0  0  0
  1  2  1  0
  2  3  1  0
  3  4  2  0
  4  5  1  0
  5  6  1  0
  6  7  1  0
  6  8  1  0
  5  9  2  0
  9 10  1  0
  9 11  1  0
 11  2  2  0
  1 12  1  0
  1 13  1  0
  1 14  1  0
  3 15  1  0
  4 16  1  0
  6 17  1  0
  7 18  1  0
  7 19  1  0
  7 20  1  0
  8 21  1  0
  8 22  1  0
  8 23  1  0
 10 24  1  0
 11 25  1  0
M  END
