
     RDKit          3D

 18 19  0  0  0  0  0  0  0  0999 V2000
   -3.0846   -2.5135    0.2052 O   0  0  0  0  0  0  0  0  0  0  0  0
   -2.2840   -1.5873    0.1501 C   0  0  0  0  0  0  0  0  0  0  0  0
   -2.7492   -0.1892    0.1685 C   0  0  0  0  0  0  0  0  0  0  0  0
   -1.9088    0.8483    0.1101 C   0  0  0  0  0  0  0  0  0  0  0  0
   -0.4782    0.6062    0.0248 C   0  0  0  0  0  0  0  0  0  0  0  0
    0.4483    1.6488   -0.0389 C   0  0  0  0  0  0  0  0  0  0  0  0
    1.8146    1.3624   -0.1199 C   0  0  0  0  0  0  0  0  0  0  0  0
    2.2498    0.0390   -0.1371 C   0  0  0  0  0  0  0  0  0  0  0  0
    3.5923   -0.1840   -0.2172 O   0  0  0  0  0  0  0  0  0  0  0  0
    1.3428   -1.0117   -0.0745 C   0  0  0  0  0  0  0  0  0  0  0  0
   -0.0153   -0.7097    0.0059 C   0  0  0  0  0  0  0  0  0  0  0  0
   -0.9136   -1.7940    0.0682 O   0  0  0  0  0  0  0  0  0  0  0  0
   -3.8217   -0.0519    0.2328 H   0  0  0  0  0  0  0  0  0  0  0  0
   -2.2739    1.8693    0.1251 H   0  0  0  0  0  0  0  0  0  0  0  0
    0.1243    2.6863   -0.0264 H   0  0  0  0  0  0  0  0  0  0  0  0
    2.5399    2.1705   -0.1697 H   0  0  0  0  0  0  0  0  0  0  0  0
    3.7519   -1.1426   -0.2201 H   0  0  0  0  0  0  0  0  0  0  0  0
    1.6653   -2.0468   -0.0869 H   0  0  0  0  0  0  0  0  0  0  0  0
  1  2  2  0
  2  3  1  0
  3  4  2  0
  4  5  1  0
  5  6  1  0
  6  7  2  0
  7  8  1  0
  8  9  1  0
  8 10  2  0
 10 11  1  0
 11 12  1  0
 12  2  1  0
 11  5  2  0
  3 13  1  0
  4 14  1  0
  6 15  1  0
  7 16  1  0
  9 17  1  0
 10 18  1  0
M  END
