
     RDKit          3D

 30 32  0  0  0  0  0  0  0  0999 V2000
   -1.5343    2.0336   -2.2112 O   0  0  0  0  0  0  0  0  0  0  0  0
   -1.0379    1.2761   -1.3847 C   0  0  0  0  0  0  0  0  0  0  0  0
    0.4159    1.0964   -1.2727 C   0  0  0  0  0  0  0  0  0  0  0  0
    0.8962    0.2483   -0.3514 C   0  0  0  0  0  0  0  0  0  0  0  0
    2.3458    0.0316   -0.1824 C   0  0  0  0  0  0  0  0  0  0  0  0
    3.1927   -0.1579   -1.2853 C   0  0  0  0  0  0  0  0  0  0  0  0
    4.5620   -0.3711   -1.1046 C   0  0  0  0  0  0  0  0  0  0  0  0
    5.1005   -0.4027    0.1797 C   0  0  0  0  0  0  0  0  0  0  0  0
    4.2713   -0.2255    1.2847 C   0  0  0  0  0  0  0  0  0  0  0  0
    2.9021   -0.0131    1.1049 C   0  0  0  0  0  0  0  0  0  0  0  0
    0.1079   -0.4737    0.5322 O   0  0  0  0  0  0  0  0  0  0  0  0
   -1.2566   -0.3374    0.4552 C   0  0  0  0  0  0  0  0  0  0  0  0
   -2.0187   -1.0916    1.3526 C   0  0  0  0  0  0  0  0  0  0  0  0
   -3.4096   -0.9936    1.3232 C   0  0  0  0  0  0  0  0  0  0  0  0
   -4.1739   -1.7211    2.1900 O   0  0  0  0  0  0  0  0  0  0  0  0
   -4.0316   -0.1483    0.4045 C   0  0  0  0  0  0  0  0  0  0  0  0
   -5.3957   -0.0431    0.3661 O   0  0  0  0  0  0  0  0  0  0  0  0
   -3.2714    0.6035   -0.4908 C   0  0  0  0  0  0  0  0  0  0  0  0
   -3.9561    1.4122   -1.3648 O   0  0  0  0  0  0  0  0  0  0  0  0
   -1.8796    0.5066   -0.4637 C   0  0  0  0  0  0  0  0  0  0  0  0
    1.0348    1.6762   -1.9452 H   0  0  0  0  0  0  0  0  0  0  0  0
    2.7965   -0.1552   -2.2983 H   0  0  0  0  0  0  0  0  0  0  0  0
    5.2073   -0.5173   -1.9673 H   0  0  0  0  0  0  0  0  0  0  0  0
    6.1656   -0.5693    0.3196 H   0  0  0  0  0  0  0  0  0  0  0  0
    4.6890   -0.2530    2.2879 H   0  0  0  0  0  0  0  0  0  0  0  0
    2.2730    0.1249    1.9819 H   0  0  0  0  0  0  0  0  0  0  0  0
   -1.5179   -1.7445    2.0608 H   0  0  0  0  0  0  0  0  0  0  0  0
   -3.6033   -2.2651    2.7542 H   0  0  0  0  0  0  0  0  0  0  0  0
   -5.5812    0.5979   -0.3479 H   0  0  0  0  0  0  0  0  0  0  0  0
   -3.2929    1.8761   -1.9272 H   0  0  0  0  0  0  0  0  0  0  0  0
  1  2  2  0
  2  3  1  0
  3  4  2  0
  4  5  1  0
  5  6  2  0
  6  7  1  0
  7  8  2  0
  8  9  1  0
  9 10  2  0
  4 11  1  0
 11 12  1  0
 12 13  1  0
 13 14  2  0
 14 15  1  0
 14 16  1  0
 16 17  1  0
 16 18  2  0
 18 19  1  0
 18 20  1  0
 20  2  1  0
 10  5  1  0
 20 12  2  0
  3 21  1  0
  6 22  1  0
  7 23  1  0
  8 24  1  0
  9 25  1  0
 10 26  1  0
 13 27  1  0
 15 28  1  0
 17 29  1  0
 19 30  1  0
M  END
