
     RDKit          3D

 39 40  0  0  0  0  0  0  0  0999 V2000
    0.4920   -2.1724    1.6141 C   0  0  0  0  0  0  0  0  0  0  0  0
    0.5939   -1.7742    0.3351 C   0  0  0  0  0  0  0  0  0  0  0  0
    1.7331   -2.2658   -0.5551 C   0  0  0  0  0  0  0  0  0  0  0  0
    2.9039   -1.2683   -0.7183 C   0  0  0  0  0  0  0  0  0  0  0  0
    2.3601    0.0526   -1.1797 C   0  0  0  0  0  0  0  0  0  0  0  0
    2.0821    1.0826   -0.3572 C   0  0  0  0  0  0  0  0  0  0  0  0
    2.6743    1.2711    1.0124 C   0  0  0  0  0  0  0  0  0  0  0  0
    0.9458    2.0048   -0.7316 C   0  0  0  0  0  0  0  0  0  0  0  0
   -0.2404    1.8991    0.2370 C   0  0  0  0  0  0  0  0  0  0  0  0
   -0.8147    0.4841    0.4781 C   0  0  2  0  0  0  0  0  0  0  0  0
   -0.4370   -0.8530   -0.2793 C   0  0  2  0  0  0  0  0  0  0  0  0
   -1.9217   -1.2776   -0.1270 C   0  0  0  0  0  0  0  0  0  0  0  0
   -2.2958    0.2321   -0.0271 C   0  0  0  0  0  0  0  0  0  0  0  0
   -2.6945    0.8266   -1.3820 C   0  0  0  0  0  0  0  0  0  0  0  0
   -3.3584    0.5276    1.0300 C   0  0  0  0  0  0  0  0  0  0  0  0
    1.2260   -2.8412    2.0540 H   0  0  0  0  0  0  0  0  0  0  0  0
   -0.3126   -1.8473    2.2651 H   0  0  0  0  0  0  0  0  0  0  0  0
    1.3229   -2.5185   -1.5420 H   0  0  0  0  0  0  0  0  0  0  0  0
    2.1384   -3.2057   -0.1581 H   0  0  0  0  0  0  0  0  0  0  0  0
    3.4486   -1.1921    0.2274 H   0  0  0  0  0  0  0  0  0  0  0  0
    3.6141   -1.6481   -1.4611 H   0  0  0  0  0  0  0  0  0  0  0  0
    1.9014    0.0206   -2.1678 H   0  0  0  0  0  0  0  0  0  0  0  0
    3.6427    0.7736    1.1174 H   0  0  0  0  0  0  0  0  0  0  0  0
    2.8530    2.3356    1.1996 H   0  0  0  0  0  0  0  0  0  0  0  0
    2.0034    0.8913    1.7883 H   0  0  0  0  0  0  0  0  0  0  0  0
    0.5844    1.7944   -1.7461 H   0  0  0  0  0  0  0  0  0  0  0  0
    1.3127    3.0382   -0.7476 H   0  0  0  0  0  0  0  0  0  0  0  0
   -1.0295    2.5738   -0.1132 H   0  0  0  0  0  0  0  0  0  0  0  0
    0.0621    2.3172    1.2069 H   0  0  0  0  0  0  0  0  0  0  0  0
   -0.7561    0.3390    1.5703 H   0  0  0  0  0  0  0  0  0  0  0  0
   -0.2187   -0.6840   -1.3424 H   0  0  0  0  0  0  0  0  0  0  0  0
   -2.1607   -1.8552    0.7739 H   0  0  0  0  0  0  0  0  0  0  0  0
   -2.3374   -1.8179   -0.9842 H   0  0  0  0  0  0  0  0  0  0  0  0
   -3.6189    0.3661   -1.7483 H   0  0  0  0  0  0  0  0  0  0  0  0
   -1.9241    0.6715   -2.1440 H   0  0  0  0  0  0  0  0  0  0  0  0
   -2.8728    1.9041   -1.3045 H   0  0  0  0  0  0  0  0  0  0  0  0
   -3.1078    0.0717    1.9941 H   0  0  0  0  0  0  0  0  0  0  0  0
   -3.4587    1.6065    1.1895 H   0  0  0  0  0  0  0  0  0  0  0  0
   -4.3348    0.1371    0.7233 H   0  0  0  0  0  0  0  0  0  0  0  0
  1  2  2  0
  2  3  1  0
  3  4  1  0
  4  5  1  0
  5  6  2  0
  6  7  1  0
  6  8  1  0
  8  9  1  0
  9 10  1  0
 10 11  1  0
 11 12  1  0
 12 13  1  0
 13 14  1  0
 13 15  1  0
 11  2  1  0
 13 10  1  0
  1 16  1  0
  1 17  1  0
  3 18  1  0
  3 19  1  0
  4 20  1  0
  4 21  1  0
  5 22  1  0
  7 23  1  0
  7 24  1  0
  7 25  1  0
  8 26  1  0
  8 27  1  0
  9 28  1  0
  9 29  1  0
 10 30  1  1
 11 31  1  6
 12 32  1  0
 12 33  1  0
 14 34  1  0
 14 35  1  0
 14 36  1  0
 15 37  1  0
 15 38  1  0
 15 39  1  0
M  END
