
     RDKit          3D

 29 30  0  0  0  0  0  0  0  0999 V2000
   -1.8589   -0.3319   -1.1879 C   0  0  0  0  0  0  0  0  0  0  0  0
   -0.9270   -0.1719    0.0305 C   0  0  0  0  0  0  0  0  0  0  0  0
   -1.5552   -1.0109    1.1613 C   0  0  0  0  0  0  0  0  0  0  0  0
   -0.6424    1.3036    0.4192 C   0  0  2  0  0  0  0  0  0  0  0  0
    0.0980    1.8654   -0.8152 C   0  0  0  0  0  0  0  0  0  0  0  0
    0.9398    0.6667   -1.2848 C   0  0  0  0  0  0  0  0  0  0  0  0
    0.5856   -0.4319   -0.2428 C   0  0  2  0  0  0  0  0  0  0  0  0
    0.9695   -1.8238   -0.7095 C   0  0  0  0  0  0  0  0  0  0  0  0
    1.2425   -0.0318    1.1129 C   0  0  1  0  0  0  0  0  0  0  0  0
    2.6133    0.3081    0.9962 O   0  0  0  0  0  0  0  0  0  0  0  0
    0.4130    1.1914    1.5458 C   0  0  0  0  0  0  0  0  0  0  0  0
   -1.9625   -1.3887   -1.4590 H   0  0  0  0  0  0  0  0  0  0  0  0
   -1.5263    0.1902   -2.0874 H   0  0  0  0  0  0  0  0  0  0  0  0
   -2.8593    0.0506   -0.9540 H   0  0  0  0  0  0  0  0  0  0  0  0
   -1.6427   -2.0610    0.8600 H   0  0  0  0  0  0  0  0  0  0  0  0
   -2.5633   -0.6457    1.3901 H   0  0  0  0  0  0  0  0  0  0  0  0
   -0.9996   -0.9994    2.1009 H   0  0  0  0  0  0  0  0  0  0  0  0
   -1.5156    1.8952    0.7043 H   0  0  0  0  0  0  0  0  0  0  0  0
    0.7240    2.7301   -0.5711 H   0  0  0  0  0  0  0  0  0  0  0  0
   -0.6031    2.1789   -1.5957 H   0  0  0  0  0  0  0  0  0  0  0  0
    0.6594    0.3731   -2.3026 H   0  0  0  0  0  0  0  0  0  0  0  0
    2.0069    0.9091   -1.3111 H   0  0  0  0  0  0  0  0  0  0  0  0
    0.4570   -2.0874   -1.6404 H   0  0  0  0  0  0  0  0  0  0  0  0
    2.0465   -1.8932   -0.8950 H   0  0  0  0  0  0  0  0  0  0  0  0
    0.7113   -2.5794    0.0394 H   0  0  0  0  0  0  0  0  0  0  0  0
    1.1670   -0.8299    1.8594 H   0  0  0  0  0  0  0  0  0  0  0  0
    3.0839   -0.4795    0.6753 H   0  0  0  0  0  0  0  0  0  0  0  0
    1.0131    2.1013    1.6531 H   0  0  0  0  0  0  0  0  0  0  0  0
   -0.0748    1.0027    2.5083 H   0  0  0  0  0  0  0  0  0  0  0  0
  1  2  1  0
  2  3  1  0
  2  4  1  0
  4  5  1  0
  5  6  1  0
  6  7  1  0
  7  8  1  6
  7  9  1  0
  9 10  1  0
  9 11  1  0
  7  2  1  0
 11  4  1  0
  1 12  1  0
  1 13  1  0
  1 14  1  0
  3 15  1  0
  3 16  1  0
  3 17  1  0
  4 18  1  1
  5 19  1  0
  5 20  1  0
  6 21  1  0
  6 22  1  0
  8 23  1  0
  8 24  1  0
  8 25  1  0
  9 26  1  1
 10 27  1  0
 11 28  1  0
 11 29  1  0
M  END
