
     RDKit          3D

 27 28  0  0  0  0  0  0  0  0999 V2000
    0.7452    1.7370    0.8276 C   0  0  0  0  0  0  0  0  0  0  0  0
    0.6823    0.3200    0.2251 C   0  0  0  0  0  0  0  0  0  0  0  0
    1.9158   -0.4383    0.7567 C   0  0  0  0  0  0  0  0  0  0  0  0
    0.5373    0.3025   -1.3223 C   0  0  2  0  0  0  0  0  0  0  0  0
   -0.8477    0.9603   -1.5498 C   0  0  0  0  0  0  0  0  0  0  0  0
   -1.6844    0.4439   -0.3578 C   0  0  0  0  0  0  0  0  0  0  0  0
   -0.6695   -0.4187    0.4272 C   0  0  2  0  0  0  0  0  0  0  0  0
   -1.0805   -0.7658    1.8378 C   0  0  0  0  0  0  0  0  0  0  0  0
   -0.4513   -1.6258   -0.4909 C   0  0  0  0  0  0  0  0  0  0  0  0
   -0.8987   -2.7492   -0.3208 O   0  0  0  0  0  0  0  0  0  0  0  0
    0.3945   -1.1990   -1.6742 C   0  0  0  0  0  0  0  0  0  0  0  0
    1.6493    2.2550    0.4874 H   0  0  0  0  0  0  0  0  0  0  0  0
   -0.1034    2.3745    0.5700 H   0  0  0  0  0  0  0  0  0  0  0  0
    0.7795    1.6916    1.9222 H   0  0  0  0  0  0  0  0  0  0  0  0
    1.9317   -1.5005    0.4984 H   0  0  0  0  0  0  0  0  0  0  0  0
    1.9611   -0.3871    1.8508 H   0  0  0  0  0  0  0  0  0  0  0  0
    2.8364    0.0077    0.3638 H   0  0  0  0  0  0  0  0  0  0  0  0
    1.3410    0.7949   -1.8751 H   0  0  0  0  0  0  0  0  0  0  0  0
   -1.2927    0.6770   -2.5095 H   0  0  0  0  0  0  0  0  0  0  0  0
   -0.7792    2.0530   -1.5311 H   0  0  0  0  0  0  0  0  0  0  0  0
   -2.5434   -0.1400   -0.7085 H   0  0  0  0  0  0  0  0  0  0  0  0
   -2.0689    1.2786    0.2380 H   0  0  0  0  0  0  0  0  0  0  0  0
   -2.0457   -1.2841    1.8468 H   0  0  0  0  0  0  0  0  0  0  0  0
   -1.1767    0.1312    2.4575 H   0  0  0  0  0  0  0  0  0  0  0  0
   -0.3533   -1.4323    2.3132 H   0  0  0  0  0  0  0  0  0  0  0  0
   -0.1322   -1.3653   -2.6165 H   0  0  0  0  0  0  0  0  0  0  0  0
    1.3537   -1.7211   -1.6661 H   0  0  0  0  0  0  0  0  0  0  0  0
  1  2  1  0
  2  3  1  0
  2  4  1  0
  4  5  1  0
  5  6  1  0
  6  7  1  0
  7  8  1  1
  7  9  1  0
  9 10  2  0
  9 11  1  0
  7  2  1  0
 11  4  1  0
  1 12  1  0
  1 13  1  0
  1 14  1  0
  3 15  1  0
  3 16  1  0
  3 17  1  0
  4 18  1  6
  5 19  1  0
  5 20  1  0
  6 21  1  0
  6 22  1  0
  8 23  1  0
  8 24  1  0
  8 25  1  0
 11 26  1  0
 11 27  1  0
M  END
