
     RDKit          3D

 43 44  0  0  0  0  0  0  0  0999 V2000
   -0.0880    2.4043   -1.6025 O   0  0  0  0  0  0  0  0  0  0  0  0
    0.3217    1.4215   -1.0034 C   0  0  0  0  0  0  0  0  0  0  0  0
    1.7088    0.9352   -1.1642 C   0  0  0  0  0  0  0  0  0  0  0  0
    2.2315   -0.1065   -0.4981 C   0  0  0  0  0  0  0  0  0  0  0  0
    3.6173   -0.5656   -0.6665 C   0  0  0  0  0  0  0  0  0  0  0  0
    4.3163   -1.0326    0.4602 C   0  0  0  0  0  0  0  0  0  0  0  0
    5.6300   -1.5032    0.3494 C   0  0  0  0  0  0  0  0  0  0  0  0
    6.2394   -1.5163   -0.8976 C   0  0  0  0  0  0  0  0  0  0  0  0
    7.5192   -1.9634   -1.0737 O   0  0  0  0  0  0  0  0  0  0  0  0
    5.5481   -1.0710   -2.0205 C   0  0  0  0  0  0  0  0  0  0  0  0
    6.1520   -1.0968   -3.2457 O   0  0  0  0  0  0  0  0  0  0  0  0
    4.2446   -0.6015   -1.9188 C   0  0  0  0  0  0  0  0  0  0  0  0
   -0.3742    0.6619   -0.1226 O   0  0  0  0  0  0  0  0  0  0  0  0
   -1.7738    0.9824    0.0354 C   0  0  2  0  0  0  0  0  0  0  0  0
   -2.0903    0.9056    1.5327 C   0  0  0  0  0  0  0  0  0  0  0  0
   -3.5956    0.9019    1.8413 C   0  0  2  0  0  0  0  0  0  0  0  0
   -3.8463    1.9974    2.7387 O   0  0  0  0  0  0  0  0  0  0  0  0
   -4.0249   -0.3920    2.5529 C   0  0  0  0  0  0  0  0  0  0  0  0
   -4.6987   -0.4438    3.5711 O   0  0  0  0  0  0  0  0  0  0  0  0
   -3.6363   -1.5219    1.9335 O   0  0  0  0  0  0  0  0  0  0  0  0
   -4.4669    1.1246    0.6038 C   0  0  0  0  0  0  0  0  0  0  0  0
   -4.1280    0.1871   -0.5541 C   0  0  1  0  0  0  0  0  0  0  0  0
   -4.7406    0.6977   -1.7447 O   0  0  0  0  0  0  0  0  0  0  0  0
   -2.6143   -0.0222   -0.7686 C   0  0  1  0  0  0  0  0  0  0  0  0
   -2.3103    0.0799   -2.1658 O   0  0  0  0  0  0  0  0  0  0  0  0
    2.2896    1.5132   -1.8753 H   0  0  0  0  0  0  0  0  0  0  0  0
    1.6396   -0.6566    0.2293 H   0  0  0  0  0  0  0  0  0  0  0  0
    3.8428   -1.0236    1.4402 H   0  0  0  0  0  0  0  0  0  0  0  0
    6.1480   -1.8497    1.2376 H   0  0  0  0  0  0  0  0  0  0  0  0
    7.8696   -2.2295   -0.2063 H   0  0  0  0  0  0  0  0  0  0  0  0
    7.0443   -1.4573   -3.0722 H   0  0  0  0  0  0  0  0  0  0  0  0
    3.7310   -0.2794   -2.8200 H   0  0  0  0  0  0  0  0  0  0  0  0
   -1.9762    2.0014   -0.3183 H   0  0  0  0  0  0  0  0  0  0  0  0
   -1.5912    1.7498    2.0279 H   0  0  0  0  0  0  0  0  0  0  0  0
   -1.5996    0.0192    1.9569 H   0  0  0  0  0  0  0  0  0  0  0  0
   -4.6495    1.7761    3.2516 H   0  0  0  0  0  0  0  0  0  0  0  0
   -3.9857   -2.2411    2.5050 H   0  0  0  0  0  0  0  0  0  0  0  0
   -5.5313    1.0195    0.8552 H   0  0  0  0  0  0  0  0  0  0  0  0
   -4.3782    2.1694    0.2728 H   0  0  0  0  0  0  0  0  0  0  0  0
   -4.5937   -0.7891   -0.3807 H   0  0  0  0  0  0  0  0  0  0  0  0
   -4.1042    1.3232   -2.1471 H   0  0  0  0  0  0  0  0  0  0  0  0
   -2.3326   -1.0372   -0.4633 H   0  0  0  0  0  0  0  0  0  0  0  0
   -2.9634   -0.4711   -2.6380 H   0  0  0  0  0  0  0  0  0  0  0  0
  1  2  2  0
  2  3  1  0
  3  4  2  0
  4  5  1  0
  5  6  1  0
  6  7  2  0
  7  8  1  0
  8  9  1  0
  8 10  2  0
 10 11  1  0
 10 12  1  0
  2 13  1  0
 13 14  1  0
 14 15  1  0
 15 16  1  0
 16 17  1  1
 16 18  1  0
 18 19  2  0
 18 20  1  0
 16 21  1  0
 21 22  1  0
 22 23  1  0
 22 24  1  0
 24 25  1  0
 12  5  2  0
 24 14  1  0
  3 26  1  0
  4 27  1  0
  6 28  1  0
  7 29  1  0
  9 30  1  0
 11 31  1  0
 12 32  1  0
 14 33  1  6
 15 34  1  0
 15 35  1  0
 17 36  1  0
 20 37  1  0
 21 38  1  0
 21 39  1  0
 22 40  1  1
 23 41  1  0
 24 42  1  1
 25 43  1  0
M  END
