
     RDKit          3D

 43 47  0  0  0  0  0  0  0  0999 V2000
    5.2292    0.0970    0.4076 C   0  0  0  0  0  0  0  0  0  0  0  0
    4.0633   -0.4107   -0.2235 O   0  0  0  0  0  0  0  0  0  0  0  0
    2.8694    0.1385    0.1429 C   0  0  0  0  0  0  0  0  0  0  0  0
    2.6879    1.1874    1.0579 C   0  0  0  0  0  0  0  0  0  0  0  0
    1.3960    1.6443    1.4017 C   0  0  0  0  0  0  0  0  0  0  0  0
    0.2673    1.0883    0.8008 C   0  0  0  0  0  0  0  0  0  0  0  0
    0.4814    0.1125   -0.1553 C   0  0  0  0  0  0  0  0  0  0  0  0
    1.7310   -0.3999   -0.4318 C   0  0  0  0  0  0  0  0  0  0  0  0
    1.6689   -1.4882   -1.2649 O   0  0  0  0  0  0  0  0  0  0  0  0
    0.2474   -1.8599   -1.2962 C   0  0  1  0  0  0  0  0  0  0  0  0
   -0.0645   -3.0954   -0.3983 C   0  0  1  0  0  0  0  0  0  0  0  0
    1.0810   -3.9186   -0.2104 O   0  0  0  0  0  0  0  0  0  0  0  0
   -0.7077   -2.7941    0.9309 C   0  0  0  0  0  0  0  0  0  0  0  0
   -1.5331   -1.7477    1.0980 C   0  0  0  0  0  0  0  0  0  0  0  0
   -1.8052   -0.7857   -0.0375 C   0  0  1  0  0  0  0  0  0  0  0  0
   -2.2528    0.6493    0.3986 C   0  0  1  0  0  0  0  0  0  0  0  0
   -1.1451    1.3984    1.2211 C   0  0  0  0  0  0  0  0  0  0  0  0
   -2.7213    1.3467   -0.8297 N   0  0  0  0  0  0  0  0  0  0  0  0
   -3.4148    2.6009   -0.5501 C   0  0  0  0  0  0  0  0  0  0  0  0
   -1.6613    1.5392   -1.8272 C   0  0  0  0  0  0  0  0  0  0  0  0
   -0.9575    0.2219   -2.1829 C   0  0  0  0  0  0  0  0  0  0  0  0
   -0.5728   -0.6015   -0.9381 C   0  0  1  0  0  0  0  0  0  0  0  0
    6.0888   -0.4588    0.0206 H   0  0  0  0  0  0  0  0  0  0  0  0
    5.1931   -0.0587    1.4909 H   0  0  0  0  0  0  0  0  0  0  0  0
    5.3807    1.1541    0.1652 H   0  0  0  0  0  0  0  0  0  0  0  0
    3.5330    1.6547    1.5532 H   0  0  0  0  0  0  0  0  0  0  0  0
    1.2899    2.4178    2.1588 H   0  0  0  0  0  0  0  0  0  0  0  0
    0.0546   -2.1624   -2.3339 H   0  0  0  0  0  0  0  0  0  0  0  0
   -0.7914   -3.7135   -0.9425 H   0  0  0  0  0  0  0  0  0  0  0  0
    0.8360   -4.6478    0.3797 H   0  0  0  0  0  0  0  0  0  0  0  0
   -0.5466   -3.4807    1.7562 H   0  0  0  0  0  0  0  0  0  0  0  0
   -2.0340   -1.5940    2.0499 H   0  0  0  0  0  0  0  0  0  0  0  0
   -2.6245   -1.2360   -0.6184 H   0  0  0  0  0  0  0  0  0  0  0  0
   -3.1278    0.5393    1.0542 H   0  0  0  0  0  0  0  0  0  0  0  0
   -1.2456    1.0824    2.2683 H   0  0  0  0  0  0  0  0  0  0  0  0
   -1.3028    2.4813    1.2099 H   0  0  0  0  0  0  0  0  0  0  0  0
   -4.2161    2.4481    0.1810 H   0  0  0  0  0  0  0  0  0  0  0  0
   -2.7478    3.3836   -0.1754 H   0  0  0  0  0  0  0  0  0  0  0  0
   -3.8939    2.9780   -1.4607 H   0  0  0  0  0  0  0  0  0  0  0  0
   -2.0962    1.9443   -2.7497 H   0  0  0  0  0  0  0  0  0  0  0  0
   -0.9261    2.2780   -1.4854 H   0  0  0  0  0  0  0  0  0  0  0  0
   -1.6320   -0.3789   -2.8079 H   0  0  0  0  0  0  0  0  0  0  0  0
   -0.0781    0.4465   -2.8002 H   0  0  0  0  0  0  0  0  0  0  0  0
  1  2  1  0
  2  3  1  0
  3  4  1  0
  4  5  2  0
  5  6  1  0
  6  7  2  0
  7  8  1  0
  8  9  1  0
  9 10  1  0
 10 11  1  0
 11 12  1  0
 11 13  1  0
 13 14  2  0
 14 15  1  0
 15 16  1  0
 16 17  1  0
 16 18  1  0
 18 19  1  0
 18 20  1  0
 20 21  1  0
 22 21  1  6
  8  3  2  0
 22 10  1  0
 17  6  1  0
 22  7  1  0
 22 15  1  0
  1 23  1  0
  1 24  1  0
  1 25  1  0
  4 26  1  0
  5 27  1  0
 10 28  1  6
 11 29  1  6
 12 30  1  0
 13 31  1  0
 14 32  1  0
 15 33  1  6
 16 34  1  1
 17 35  1  0
 17 36  1  0
 19 37  1  0
 19 38  1  0
 19 39  1  0
 20 40  1  0
 20 41  1  0
 21 42  1  0
 21 43  1  0
M  END
