
     RDKit          3D

 47 48  0  0  0  0  0  0  0  0999 V2000
    4.8934   -2.7121    0.9249 C   0  0  0  0  0  0  0  0  0  0  0  0
    5.9699   -2.1310    0.1974 O   0  0  0  0  0  0  0  0  0  0  0  0
    5.7178   -0.9332   -0.4219 C   0  0  0  0  0  0  0  0  0  0  0  0
    4.5076   -0.2364   -0.4104 C   0  0  0  0  0  0  0  0  0  0  0  0
    4.3860    0.9921   -1.0851 C   0  0  0  0  0  0  0  0  0  0  0  0
    3.1225    1.7415   -1.1157 C   0  0  0  0  0  0  0  0  0  0  0  0
    2.3092    1.8648   -0.0568 C   0  0  0  0  0  0  0  0  0  0  0  0
    1.0396    2.6376   -0.1667 C   0  0  0  0  0  0  0  0  0  0  0  0
    0.6870    3.1561   -1.2242 O   0  0  0  0  0  0  0  0  0  0  0  0
    0.1918    2.7397    1.0697 C   0  0  0  0  0  0  0  0  0  0  0  0
   -0.5665    1.4688    1.3320 C   0  0  0  0  0  0  0  0  0  0  0  0
   -0.0168    0.4954    1.8461 O   0  0  0  0  0  0  0  0  0  0  0  0
   -1.9962    1.4292    0.9146 C   0  0  0  0  0  0  0  0  0  0  0  0
   -2.7471    0.3526    1.1902 C   0  0  0  0  0  0  0  0  0  0  0  0
   -4.1579    0.2201    0.8006 C   0  0  0  0  0  0  0  0  0  0  0  0
   -5.0568    1.2932    0.8895 C   0  0  0  0  0  0  0  0  0  0  0  0
   -6.3956    1.1242    0.5369 C   0  0  0  0  0  0  0  0  0  0  0  0
   -6.8325   -0.1206    0.1060 C   0  0  0  0  0  0  0  0  0  0  0  0
   -8.1507   -0.2601   -0.2335 O   0  0  0  0  0  0  0  0  0  0  0  0
   -5.9633   -1.2129    0.0203 C   0  0  0  0  0  0  0  0  0  0  0  0
   -6.5406   -2.3778   -0.4165 O   0  0  0  0  0  0  0  0  0  0  0  0
   -5.6852   -3.5091   -0.5337 C   0  0  0  0  0  0  0  0  0  0  0  0
   -4.6246   -1.0369    0.3763 C   0  0  0  0  0  0  0  0  0  0  0  0
    5.4839    1.4980   -1.7956 C   0  0  0  0  0  0  0  0  0  0  0  0
    6.6954    0.8077   -1.8115 C   0  0  0  0  0  0  0  0  0  0  0  0
    6.8002   -0.3940   -1.1252 C   0  0  0  0  0  0  0  0  0  0  0  0
    7.9992   -1.0529   -1.1554 O   0  0  0  0  0  0  0  0  0  0  0  0
    5.2528   -3.6495    1.3602 H   0  0  0  0  0  0  0  0  0  0  0  0
    4.5769   -2.0626    1.7478 H   0  0  0  0  0  0  0  0  0  0  0  0
    4.0547   -2.9522    0.2632 H   0  0  0  0  0  0  0  0  0  0  0  0
    3.6422   -0.6380    0.1062 H   0  0  0  0  0  0  0  0  0  0  0  0
    2.8763    2.2238   -2.0607 H   0  0  0  0  0  0  0  0  0  0  0  0
    2.5299    1.4179    0.9061 H   0  0  0  0  0  0  0  0  0  0  0  0
    0.8183    2.9706    1.9387 H   0  0  0  0  0  0  0  0  0  0  0  0
   -0.4953    3.5865    0.9643 H   0  0  0  0  0  0  0  0  0  0  0  0
   -2.3805    2.2871    0.3748 H   0  0  0  0  0  0  0  0  0  0  0  0
   -2.3152   -0.5019    1.7093 H   0  0  0  0  0  0  0  0  0  0  0  0
   -4.7320    2.2678    1.2447 H   0  0  0  0  0  0  0  0  0  0  0  0
   -7.0940    1.9531    0.6027 H   0  0  0  0  0  0  0  0  0  0  0  0
   -8.2438   -1.1949   -0.5021 H   0  0  0  0  0  0  0  0  0  0  0  0
   -6.2879   -4.3467   -0.8977 H   0  0  0  0  0  0  0  0  0  0  0  0
   -5.2728   -3.7939    0.4398 H   0  0  0  0  0  0  0  0  0  0  0  0
   -4.8899   -3.3286   -1.2645 H   0  0  0  0  0  0  0  0  0  0  0  0
   -3.9203   -1.8612    0.3245 H   0  0  0  0  0  0  0  0  0  0  0  0
    5.4073    2.4387   -2.3369 H   0  0  0  0  0  0  0  0  0  0  0  0
    7.5489    1.2015   -2.3549 H   0  0  0  0  0  0  0  0  0  0  0  0
    7.8548   -1.8615   -0.6264 H   0  0  0  0  0  0  0  0  0  0  0  0
  1  2  1  0
  2  3  1  0
  3  4  1  0
  4  5  2  0
  5  6  1  0
  6  7  2  0
  7  8  1  0
  8  9  2  0
  8 10  1  0
 10 11  1  0
 11 12  2  0
 11 13  1  0
 13 14  2  0
 14 15  1  0
 15 16  1  0
 16 17  2  0
 17 18  1  0
 18 19  1  0
 18 20  2  0
 20 21  1  0
 21 22  1  0
 20 23  1  0
  5 24  1  0
 24 25  2  0
 25 26  1  0
 26 27  1  0
 26  3  2  0
 23 15  2  0
  1 28  1  0
  1 29  1  0
  1 30  1  0
  4 31  1  0
  6 32  1  0
  7 33  1  0
 10 34  1  0
 10 35  1  0
 13 36  1  0
 14 37  1  0
 16 38  1  0
 17 39  1  0
 19 40  1  0
 22 41  1  0
 22 42  1  0
 22 43  1  0
 23 44  1  0
 24 45  1  0
 25 46  1  0
 27 47  1  0
M  END
