
     RDKit          3D

 29 30  0  0  0  0  0  0  0  0999 V2000
   -1.9694    1.9573   -0.2759 C   0  0  0  0  0  0  0  0  0  0  0  0
   -1.0775    0.7256   -0.1593 C   0  0  0  0  0  0  0  0  0  0  0  0
   -1.0931   -0.0944   -1.4636 C   0  0  0  0  0  0  0  0  0  0  0  0
   -0.1926   -1.3256   -1.3111 C   0  0  0  0  0  0  0  0  0  0  0  0
    0.5179   -1.2618    0.0546 C   0  0  0  0  0  0  0  0  0  0  0  0
   -0.5909   -1.3841    1.1174 C   0  0  0  0  0  0  0  0  0  0  0  0
   -1.5025   -0.1545    1.0318 C   0  0  0  0  0  0  0  0  0  0  0  0
    1.2296    0.1150    0.2044 C   0  0  0  0  0  0  0  0  0  0  0  0
    2.3026    0.3329   -0.8731 C   0  0  0  0  0  0  0  0  0  0  0  0
    1.9008    0.2739    1.5771 C   0  0  0  0  0  0  0  0  0  0  0  0
    0.2697    1.1853    0.0728 O   0  0  0  0  0  0  0  0  0  0  0  0
   -1.6349    2.6038   -1.0951 H   0  0  0  0  0  0  0  0  0  0  0  0
   -3.0143    1.6837   -0.4538 H   0  0  0  0  0  0  0  0  0  0  0  0
   -1.9189    2.5621    0.6365 H   0  0  0  0  0  0  0  0  0  0  0  0
   -2.1118   -0.4063   -1.7225 H   0  0  0  0  0  0  0  0  0  0  0  0
   -0.7179    0.5152   -2.2950 H   0  0  0  0  0  0  0  0  0  0  0  0
    0.5277   -1.3767   -2.1348 H   0  0  0  0  0  0  0  0  0  0  0  0
   -0.7954   -2.2393   -1.3851 H   0  0  0  0  0  0  0  0  0  0  0  0
    1.2270   -2.0915    0.1509 H   0  0  0  0  0  0  0  0  0  0  0  0
   -0.1709   -1.4792    2.1246 H   0  0  0  0  0  0  0  0  0  0  0  0
   -1.1787   -2.2956    0.9522 H   0  0  0  0  0  0  0  0  0  0  0  0
   -2.5480   -0.4704    0.9370 H   0  0  0  0  0  0  0  0  0  0  0  0
   -1.4171    0.4126    1.9672 H   0  0  0  0  0  0  0  0  0  0  0  0
    3.0390   -0.4772   -0.8740 H   0  0  0  0  0  0  0  0  0  0  0  0
    2.8320    1.2790   -0.7088 H   0  0  0  0  0  0  0  0  0  0  0  0
    1.8673    0.4156   -1.8738 H   0  0  0  0  0  0  0  0  0  0  0  0
    1.1681    0.3130    2.3892 H   0  0  0  0  0  0  0  0  0  0  0  0
    2.4477    1.2226    1.6350 H   0  0  0  0  0  0  0  0  0  0  0  0
    2.6045   -0.5410    1.7751 H   0  0  0  0  0  0  0  0  0  0  0  0
  1  2  1  0
  2  3  1  0
  3  4  1  0
  4  5  1  0
  5  6  1  0
  6  7  1  0
  5  8  1  0
  8  9  1  0
  8 10  1  0
  8 11  1  0
  7  2  1  0
 11  2  1  0
  1 12  1  0
  1 13  1  0
  1 14  1  0
  3 15  1  0
  3 16  1  0
  4 17  1  0
  4 18  1  0
  5 19  1  0
  6 20  1  0
  6 21  1  0
  7 22  1  0
  7 23  1  0
  9 24  1  0
  9 25  1  0
  9 26  1  0
 10 27  1  0
 10 28  1  0
 10 29  1  0
M  END
