
     RDKit          3D

 31 33  0  0  0  0  0  0  0  0999 V2000
   -2.2277   -3.0437    0.3687 O   0  0  0  0  0  0  0  0  0  0  0  0
   -1.7339   -1.9221    0.3111 C   0  0  0  0  0  0  0  0  0  0  0  0
   -0.2607   -1.7665    0.2422 C   0  0  0  0  0  0  0  0  0  0  0  0
    0.4896   -2.9285    0.2337 O   0  0  0  0  0  0  0  0  0  0  0  0
    0.2579   -0.5260    0.1758 C   0  0  0  0  0  0  0  0  0  0  0  0
    1.7101   -0.2572    0.0913 C   0  0  0  0  0  0  0  0  0  0  0  0
    2.6260   -0.8818    0.9532 C   0  0  0  0  0  0  0  0  0  0  0  0
    3.9936   -0.5987    0.8767 C   0  0  0  0  0  0  0  0  0  0  0  0
    4.4546    0.3211   -0.0604 C   0  0  0  0  0  0  0  0  0  0  0  0
    5.7871    0.6099   -0.1484 O   0  0  0  0  0  0  0  0  0  0  0  0
    3.5571    0.9575   -0.9160 C   0  0  0  0  0  0  0  0  0  0  0  0
    4.0275    1.8616   -1.8277 O   0  0  0  0  0  0  0  0  0  0  0  0
    2.1923    0.6754   -0.8423 C   0  0  0  0  0  0  0  0  0  0  0  0
   -0.5080    0.6343    0.1554 O   0  0  0  0  0  0  0  0  0  0  0  0
   -1.8729    0.5282    0.2263 C   0  0  0  0  0  0  0  0  0  0  0  0
   -2.6065    1.7130    0.2161 C   0  0  0  0  0  0  0  0  0  0  0  0
   -3.9961    1.6592    0.2838 C   0  0  0  0  0  0  0  0  0  0  0  0
   -4.6751    2.8411    0.2705 O   0  0  0  0  0  0  0  0  0  0  0  0
   -4.6664    0.4401    0.3617 C   0  0  0  0  0  0  0  0  0  0  0  0
   -3.9306   -0.7464    0.3720 C   0  0  0  0  0  0  0  0  0  0  0  0
   -2.5343   -0.6935    0.3041 C   0  0  0  0  0  0  0  0  0  0  0  0
   -0.1695   -3.6549    0.2625 H   0  0  0  0  0  0  0  0  0  0  0  0
    2.2812   -1.5986    1.6958 H   0  0  0  0  0  0  0  0  0  0  0  0
    4.6760   -1.1025    1.5538 H   0  0  0  0  0  0  0  0  0  0  0  0
    6.2702    0.0716    0.4967 H   0  0  0  0  0  0  0  0  0  0  0  0
    3.2841    2.2096   -2.3429 H   0  0  0  0  0  0  0  0  0  0  0  0
    1.4970    1.1737   -1.5118 H   0  0  0  0  0  0  0  0  0  0  0  0
   -2.1020    2.6733    0.1572 H   0  0  0  0  0  0  0  0  0  0  0  0
   -5.6282    2.6609    0.3290 H   0  0  0  0  0  0  0  0  0  0  0  0
   -5.7502    0.3943    0.4144 H   0  0  0  0  0  0  0  0  0  0  0  0
   -4.4421   -1.7048    0.4322 H   0  0  0  0  0  0  0  0  0  0  0  0
  1  2  2  0
  2  3  1  0
  3  4  1  0
  3  5  2  0
  5  6  1  0
  6  7  1  0
  7  8  2  0
  8  9  1  0
  9 10  1  0
  9 11  2  0
 11 12  1  0
 11 13  1  0
  5 14  1  0
 14 15  1  0
 15 16  1  0
 16 17  2  0
 17 18  1  0
 17 19  1  0
 19 20  2  0
 20 21  1  0
 21  2  1  0
 13  6  2  0
 21 15  2  0
  4 22  1  0
  7 23  1  0
  8 24  1  0
 10 25  1  0
 12 26  1  0
 13 27  1  0
 16 28  1  0
 18 29  1  0
 19 30  1  0
 20 31  1  0
M  END
