
     RDKit          3D

 29 28  0  0  0  0  0  0  0  0999 V2000
    3.9970    0.4005   -0.3208 C   0  0  0  0  0  0  0  0  0  0  0  0
    3.0736    0.5782    0.6348 C   0  0  0  0  0  0  0  0  0  0  0  0
    1.5661    0.6704    0.4844 C   0  0  0  0  0  0  0  0  0  0  0  0
    0.9234   -0.4259    1.3370 C   0  0  0  0  0  0  0  0  0  0  0  0
    1.2041    1.9270    1.0666 O   0  0  0  0  0  0  0  0  0  0  0  0
    1.0732    0.6535   -0.9829 C   0  0  0  0  0  0  0  0  0  0  0  0
   -0.4401    0.8420   -1.1909 C   0  0  0  0  0  0  0  0  0  0  0  0
   -1.2147   -0.4496   -1.1617 C   0  0  0  0  0  0  0  0  0  0  0  0
   -2.3039   -0.7535   -0.4284 C   0  0  0  0  0  0  0  0  0  0  0  0
   -2.9818    0.1645    0.5516 C   0  0  0  0  0  0  0  0  0  0  0  0
   -2.9519   -2.1091   -0.5471 C   0  0  0  0  0  0  0  0  0  0  0  0
    5.0512    0.3543   -0.0616 H   0  0  0  0  0  0  0  0  0  0  0  0
    3.7461    0.2917   -1.3701 H   0  0  0  0  0  0  0  0  0  0  0  0
    3.4323    0.6749    1.6605 H   0  0  0  0  0  0  0  0  0  0  0  0
    1.0561   -1.4171    0.8906 H   0  0  0  0  0  0  0  0  0  0  0  0
    1.3551   -0.4494    2.3457 H   0  0  0  0  0  0  0  0  0  0  0  0
   -0.1434   -0.2399    1.4896 H   0  0  0  0  0  0  0  0  0  0  0  0
    1.7293    2.6100    0.6155 H   0  0  0  0  0  0  0  0  0  0  0  0
    1.5560    1.4893   -1.5094 H   0  0  0  0  0  0  0  0  0  0  0  0
    1.4032   -0.2659   -1.4840 H   0  0  0  0  0  0  0  0  0  0  0  0
   -0.8274    1.5908   -0.4968 H   0  0  0  0  0  0  0  0  0  0  0  0
   -0.5866    1.2615   -2.1951 H   0  0  0  0  0  0  0  0  0  0  0  0
   -0.8361   -1.2073   -1.8485 H   0  0  0  0  0  0  0  0  0  0  0  0
   -2.5072    1.1436    0.6371 H   0  0  0  0  0  0  0  0  0  0  0  0
   -2.9800   -0.2861    1.5499 H   0  0  0  0  0  0  0  0  0  0  0  0
   -4.0217    0.3312    0.2515 H   0  0  0  0  0  0  0  0  0  0  0  0
   -2.9440   -2.6187    0.4221 H   0  0  0  0  0  0  0  0  0  0  0  0
   -3.9904   -2.0052   -0.8780 H   0  0  0  0  0  0  0  0  0  0  0  0
   -2.4374   -2.7556   -1.2659 H   0  0  0  0  0  0  0  0  0  0  0  0
  1  2  2  0
  2  3  1  0
  3  4  1  0
  3  5  1  0
  3  6  1  0
  6  7  1  0
  7  8  1  0
  8  9  2  3
  9 10  1  0
  9 11  1  0
  1 12  1  0
  1 13  1  0
  2 14  1  0
  4 15  1  0
  4 16  1  0
  4 17  1  0
  5 18  1  0
  6 19  1  0
  6 20  1  0
  7 21  1  0
  7 22  1  0
  8 23  1  0
 10 24  1  0
 10 25  1  0
 10 26  1  0
 11 27  1  0
 11 28  1  0
 11 29  1  0
M  END
