
     RDKit          3D

 65 67  0  0  0  0  0  0  0  0999 V2000
   -3.3492    0.8104   -3.7476 C   0  0  0  0  0  0  0  0  0  0  0  0
   -3.0559    0.8602   -2.2558 C   0  0  0  0  0  0  0  0  0  0  0  0
   -3.8683   -0.1565   -1.4431 C   0  0  2  0  0  0  0  0  0  0  0  0
   -5.3696    0.1242   -1.4645 C   0  0  0  0  0  0  0  0  0  0  0  0
   -3.3622   -0.1541   -0.0113 C   0  0  0  0  0  0  0  0  0  0  0  0
   -3.8416    0.4998    0.9042 O   0  0  0  0  0  0  0  0  0  0  0  0
   -2.2758   -0.9674    0.0917 O   0  0  0  0  0  0  0  0  0  0  0  0
   -1.6614   -1.0577    1.3903 C   0  0  1  0  0  0  0  0  0  0  0  0
   -2.3806   -2.0835    2.2802 C   0  0  0  0  0  0  0  0  0  0  0  0
   -2.2542   -3.5381    1.7869 C   0  0  1  0  0  0  0  0  0  0  0  0
   -3.4348   -3.9189    0.8863 C   0  0  0  0  0  0  0  0  0  0  0  0
   -0.9611   -3.8257    1.0648 C   0  0  0  0  0  0  0  0  0  0  0  0
   -0.0352   -2.8959    0.7724 C   0  0  0  0  0  0  0  0  0  0  0  0
    1.0793   -3.2230   -0.0880 C   0  0  0  0  0  0  0  0  0  0  0  0
    1.5434   -2.3150   -0.9571 C   0  0  0  0  0  0  0  0  0  0  0  0
    0.9250   -0.9409   -1.0405 C   0  0  2  0  0  0  0  0  0  0  0  0
    1.7687   -0.0110   -1.9119 C   0  0  0  0  0  0  0  0  0  0  0  0
    0.6263   -0.3933    0.3855 C   0  0  2  0  0  0  0  0  0  0  0  0
    1.9156    0.0403    1.1500 C   0  0  0  0  0  0  0  0  0  0  0  0
    2.1937    1.5504    1.0371 C   0  0  0  0  0  0  0  0  0  0  0  0
    3.5039    1.9471    1.7403 C   0  0  2  0  0  0  0  0  0  0  0  0
    3.6963    3.4543    1.8243 C   0  0  0  0  0  0  0  0  0  0  0  0
    4.0647    4.0153    0.4648 C   0  0  1  0  0  0  0  0  0  0  0  0
    4.3176    5.4129    0.5830 O   0  0  0  0  0  0  0  0  0  0  0  0
    5.3137    3.3332   -0.0459 C   0  0  0  0  0  0  0  0  0  0  0  0
    5.2260    1.8357    0.0035 C   0  0  0  0  0  0  0  0  0  0  0  0
    5.7900    1.1272   -0.8243 O   0  0  0  0  0  0  0  0  0  0  0  0
    4.6069    1.2941    1.0785 O   0  0  0  0  0  0  0  0  0  0  0  0
   -0.1732   -1.4515    1.2321 C   0  0  1  0  0  0  0  0  0  0  0  0
   -4.3780    1.1119   -3.9648 H   0  0  0  0  0  0  0  0  0  0  0  0
   -3.1907   -0.1969   -4.1454 H   0  0  0  0  0  0  0  0  0  0  0  0
   -2.6836    1.4945   -4.2838 H   0  0  0  0  0  0  0  0  0  0  0  0
   -1.9843    0.6745   -2.1093 H   0  0  0  0  0  0  0  0  0  0  0  0
   -3.2421    1.8754   -1.8833 H   0  0  0  0  0  0  0  0  0  0  0  0
   -3.7167   -1.1665   -1.8461 H   0  0  0  0  0  0  0  0  0  0  0  0
   -5.5889    1.1493   -1.1460 H   0  0  0  0  0  0  0  0  0  0  0  0
   -5.7858   -0.0180   -2.4664 H   0  0  0  0  0  0  0  0  0  0  0  0
   -5.9013   -0.5527   -0.7863 H   0  0  0  0  0  0  0  0  0  0  0  0
   -1.6972   -0.0752    1.8803 H   0  0  0  0  0  0  0  0  0  0  0  0
   -1.9417   -2.0249    3.2856 H   0  0  0  0  0  0  0  0  0  0  0  0
   -3.4380   -1.8163    2.3919 H   0  0  0  0  0  0  0  0  0  0  0  0
   -2.2985   -4.1918    2.6678 H   0  0  0  0  0  0  0  0  0  0  0  0
   -3.3911   -4.9796    0.6133 H   0  0  0  0  0  0  0  0  0  0  0  0
   -3.4465   -3.3393   -0.0423 H   0  0  0  0  0  0  0  0  0  0  0  0
   -4.3870   -3.7529    1.4016 H   0  0  0  0  0  0  0  0  0  0  0  0
   -0.8335   -4.8459    0.7055 H   0  0  0  0  0  0  0  0  0  0  0  0
    1.4676   -4.2376   -0.0942 H   0  0  0  0  0  0  0  0  0  0  0  0
    2.3327   -2.5890   -1.6519 H   0  0  0  0  0  0  0  0  0  0  0  0
   -0.0343   -1.0543   -1.5658 H   0  0  0  0  0  0  0  0  0  0  0  0
    2.7926    0.0934   -1.5392 H   0  0  0  0  0  0  0  0  0  0  0  0
    1.3123    0.9822   -1.9733 H   0  0  0  0  0  0  0  0  0  0  0  0
    1.8367   -0.4003   -2.9345 H   0  0  0  0  0  0  0  0  0  0  0  0
   -0.0003    0.5022    0.2742 H   0  0  0  0  0  0  0  0  0  0  0  0
    1.8211   -0.1755    2.2207 H   0  0  0  0  0  0  0  0  0  0  0  0
    2.7805   -0.5360    0.8034 H   0  0  0  0  0  0  0  0  0  0  0  0
    2.2410    1.8343   -0.0168 H   0  0  0  0  0  0  0  0  0  0  0  0
    1.3569    2.0992    1.4861 H   0  0  0  0  0  0  0  0  0  0  0  0
    3.4820    1.5552    2.7642 H   0  0  0  0  0  0  0  0  0  0  0  0
    4.5065    3.6802    2.5308 H   0  0  0  0  0  0  0  0  0  0  0  0
    2.8041    3.9502    2.2241 H   0  0  0  0  0  0  0  0  0  0  0  0
    3.2442    3.8866   -0.2495 H   0  0  0  0  0  0  0  0  0  0  0  0
    3.4928    5.8480    0.8619 H   0  0  0  0  0  0  0  0  0  0  0  0
    6.1946    3.6419    0.5298 H   0  0  0  0  0  0  0  0  0  0  0  0
    5.4927    3.6431   -1.0823 H   0  0  0  0  0  0  0  0  0  0  0  0
    0.2329   -1.4424    2.2539 H   0  0  0  0  0  0  0  0  0  0  0  0
  1  2  1  0
  2  3  1  0
  3  4  1  0
  3  5  1  0
  5  6  2  0
  5  7  1  0
  7  8  1  0
  8  9  1  0
  9 10  1  0
 10 11  1  0
 10 12  1  0
 12 13  2  0
 13 14  1  0
 14 15  2  0
 15 16  1  0
 16 17  1  0
 16 18  1  0
 18 19  1  0
 19 20  1  0
 20 21  1  0
 21 22  1  0
 22 23  1  0
 23 24  1  0
 23 25  1  0
 25 26  1  0
 26 27  2  0
 26 28  1  0
 18 29  1  0
 29  8  1  0
 29 13  1  0
 28 21  1  0
  1 30  1  0
  1 31  1  0
  1 32  1  0
  2 33  1  0
  2 34  1  0
  3 35  1  6
  4 36  1  0
  4 37  1  0
  4 38  1  0
  8 39  1  1
  9 40  1  0
  9 41  1  0
 10 42  1  1
 11 43  1  0
 11 44  1  0
 11 45  1  0
 12 46  1  0
 14 47  1  0
 15 48  1  0
 16 49  1  6
 17 50  1  0
 17 51  1  0
 17 52  1  0
 18 53  1  6
 19 54  1  0
 19 55  1  0
 20 56  1  0
 20 57  1  0
 21 58  1  1
 22 59  1  0
 22 60  1  0
 23 61  1  6
 24 62  1  0
 25 63  1  0
 25 64  1  0
 29 65  1  1
M  END
