
     RDKit          3D

 32 34  0  0  0  0  0  0  0  0999 V2000
   -2.1925   -2.7171    0.6719 O   0  0  0  0  0  0  0  0  0  0  0  0
   -1.5966   -1.6988    0.3287 C   0  0  0  0  0  0  0  0  0  0  0  0
   -0.1134   -1.6561    0.1018 C   0  0  0  0  0  0  0  0  0  0  0  0
    0.3749   -0.2551    0.4428 C   0  0  1  0  0  0  0  0  0  0  0  0
    1.8768   -0.1514    0.2505 C   0  0  0  0  0  0  0  0  0  0  0  0
    2.7368   -0.2653    1.3557 C   0  0  0  0  0  0  0  0  0  0  0  0
    4.1229   -0.1962    1.1914 C   0  0  0  0  0  0  0  0  0  0  0  0
    4.6534   -0.0172   -0.0813 C   0  0  0  0  0  0  0  0  0  0  0  0
    5.9989    0.0552   -0.2873 O   0  0  0  0  0  0  0  0  0  0  0  0
    3.8226    0.0923   -1.1886 C   0  0  0  0  0  0  0  0  0  0  0  0
    2.4382    0.0233   -1.0251 C   0  0  0  0  0  0  0  0  0  0  0  0
   -0.2668    0.7293   -0.3859 O   0  0  0  0  0  0  0  0  0  0  0  0
   -1.6347    0.6840   -0.3092 C   0  0  0  0  0  0  0  0  0  0  0  0
   -2.3135    1.8557   -0.6459 C   0  0  0  0  0  0  0  0  0  0  0  0
   -3.7046    1.8799   -0.5805 C   0  0  0  0  0  0  0  0  0  0  0  0
   -4.4079    3.0064   -0.8901 O   0  0  0  0  0  0  0  0  0  0  0  0
   -4.4248    0.7527   -0.1947 C   0  0  0  0  0  0  0  0  0  0  0  0
   -3.7453   -0.4209    0.1192 C   0  0  0  0  0  0  0  0  0  0  0  0
   -4.5059   -1.5020    0.4735 O   0  0  0  0  0  0  0  0  0  0  0  0
   -2.3487   -0.4602    0.0558 C   0  0  0  0  0  0  0  0  0  0  0  0
    0.0726   -1.9174   -0.9464 H   0  0  0  0  0  0  0  0  0  0  0  0
    0.3670   -2.4011    0.7455 H   0  0  0  0  0  0  0  0  0  0  0  0
    0.1408   -0.0052    1.4883 H   0  0  0  0  0  0  0  0  0  0  0  0
    2.3335   -0.4091    2.3561 H   0  0  0  0  0  0  0  0  0  0  0  0
    4.7662   -0.2846    2.0613 H   0  0  0  0  0  0  0  0  0  0  0  0
    6.4497   -0.0307    0.5685 H   0  0  0  0  0  0  0  0  0  0  0  0
    4.2507    0.2315   -2.1773 H   0  0  0  0  0  0  0  0  0  0  0  0
    1.7995    0.1113   -1.9018 H   0  0  0  0  0  0  0  0  0  0  0  0
   -1.7482    2.7335   -0.9436 H   0  0  0  0  0  0  0  0  0  0  0  0
   -3.7886    3.7076   -1.1527 H   0  0  0  0  0  0  0  0  0  0  0  0
   -5.5097    0.7856   -0.1482 H   0  0  0  0  0  0  0  0  0  0  0  0
   -3.9031   -2.2599    0.6477 H   0  0  0  0  0  0  0  0  0  0  0  0
  1  2  2  0
  2  3  1  0
  3  4  1  0
  4  5  1  0
  5  6  1  0
  6  7  2  0
  7  8  1  0
  8  9  1  0
  8 10  2  0
 10 11  1  0
  4 12  1  0
 12 13  1  0
 13 14  2  0
 14 15  1  0
 15 16  1  0
 15 17  2  0
 17 18  1  0
 18 19  1  0
 18 20  2  0
 20  2  1  0
 11  5  2  0
 20 13  1  0
  3 21  1  0
  3 22  1  0
  4 23  1  1
  6 24  1  0
  7 25  1  0
  9 26  1  0
 10 27  1  0
 11 28  1  0
 14 29  1  0
 16 30  1  0
 17 31  1  0
 19 32  1  0
M  END
