
     RDKit          3D

 81 85  0  0  0  0  0  0  0  0999 V2000
   -5.9538   -1.9323    1.3563 C   0  0  0  0  0  0  0  0  0  0  0  0
   -5.2586   -0.5600    1.2651 C   0  0  0  0  0  0  0  0  0  0  0  0
   -5.4123    0.1401    2.6290 C   0  0  0  0  0  0  0  0  0  0  0  0
   -5.9405    0.3080    0.1781 C   0  0  0  0  0  0  0  0  0  0  0  0
   -5.2972    0.1192   -1.1960 C   0  0  0  0  0  0  0  0  0  0  0  0
   -3.8056    0.5679   -1.2193 C   0  0  2  0  0  0  0  0  0  0  0  0
   -3.8082    2.0545   -1.6054 C   0  0  0  0  0  0  0  0  0  0  0  0
   -3.8100    3.0119   -0.8478 O   0  0  0  0  0  0  0  0  0  0  0  0
   -3.8976    2.2755   -2.9327 O   0  0  0  0  0  0  0  0  0  0  0  0
   -3.0625   -0.2824   -2.2746 C   0  0  0  0  0  0  0  0  0  0  0  0
   -1.5632    0.0149   -2.3087 C   0  0  0  0  0  0  0  0  0  0  0  0
   -0.8270   -0.2532   -0.9637 C   0  0  2  0  0  0  0  0  0  0  0  0
   -0.8407   -1.7926   -0.7256 C   0  0  0  0  0  0  0  0  0  0  0  0
   -1.6094    0.3949    0.1937 C   0  0  0  0  0  0  0  0  0  0  0  0
   -0.9774    0.9944    1.2239 C   0  0  0  0  0  0  0  0  0  0  0  0
    0.5064    1.1139    1.4024 C   0  0  0  0  0  0  0  0  0  0  0  0
    1.3250    0.2453    0.4245 C   0  0  2  0  0  0  0  0  0  0  0  0
    2.9071    0.3972    0.5771 C   0  0  1  0  0  0  0  0  0  0  0  0
    3.3764    1.8679    0.4633 C   0  0  0  0  0  0  0  0  0  0  0  0
    3.3112   -0.1046    2.0097 C   0  0  0  0  0  0  0  0  0  0  0  0
    4.5239   -1.0408    2.0615 C   0  0  0  0  0  0  0  0  0  0  0  0
    5.6396   -0.6419    1.1012 C   0  0  2  0  0  0  0  0  0  0  0  0
    6.1609    0.6255    1.4934 O   0  0  0  0  0  0  0  0  0  0  0  0
    5.1653   -0.6461   -0.3881 C   0  0  0  0  0  0  0  0  0  0  0  0
    5.9228    0.4105   -1.2198 C   0  0  0  0  0  0  0  0  0  0  0  0
    5.5628   -2.0302   -0.9804 C   0  0  0  0  0  0  0  0  0  0  0  0
    3.5933   -0.5204   -0.4918 C   0  0  2  0  0  0  0  0  0  0  0  0
    3.0770   -0.2125   -1.9112 C   0  0  0  0  0  0  0  0  0  0  0  0
    1.5781   -0.4940   -2.0117 C   0  0  0  0  0  0  0  0  0  0  0  0
    0.7046    0.3259   -1.0244 C   0  0  1  0  0  0  0  0  0  0  0  0
    0.6801    1.7976   -1.5383 C   0  0  0  0  0  0  0  0  0  0  0  0
   -3.1440    0.4117    0.1847 C   0  0  2  0  0  0  0  0  0  0  0  0
   -3.7545   -0.7834    0.9473 C   0  0  0  0  0  0  0  0  0  0  0  0
   -7.0097   -1.8254    1.6297 H   0  0  0  0  0  0  0  0  0  0  0  0
   -5.4771   -2.5659    2.1129 H   0  0  0  0  0  0  0  0  0  0  0  0
   -5.9120   -2.4659    0.4004 H   0  0  0  0  0  0  0  0  0  0  0  0
   -6.4683    0.3112    2.8670 H   0  0  0  0  0  0  0  0  0  0  0  0
   -4.9836   -0.4647    3.4361 H   0  0  0  0  0  0  0  0  0  0  0  0
   -4.9073    1.1120    2.6403 H   0  0  0  0  0  0  0  0  0  0  0  0
   -7.0101    0.0717    0.1167 H   0  0  0  0  0  0  0  0  0  0  0  0
   -5.8851    1.3715    0.4445 H   0  0  0  0  0  0  0  0  0  0  0  0
   -5.8810    0.6754   -1.9406 H   0  0  0  0  0  0  0  0  0  0  0  0
   -5.3861   -0.9383   -1.4758 H   0  0  0  0  0  0  0  0  0  0  0  0
   -3.9180    3.2532   -3.0020 H   0  0  0  0  0  0  0  0  0  0  0  0
   -3.2208   -1.3502   -2.0845 H   0  0  0  0  0  0  0  0  0  0  0  0
   -3.4765   -0.1068   -3.2757 H   0  0  0  0  0  0  0  0  0  0  0  0
   -1.1096   -0.5852   -3.1073 H   0  0  0  0  0  0  0  0  0  0  0  0
   -1.4565    1.0577   -2.6179 H   0  0  0  0  0  0  0  0  0  0  0  0
   -0.2862   -2.0919    0.1671 H   0  0  0  0  0  0  0  0  0  0  0  0
   -1.8490   -2.1885   -0.5936 H   0  0  0  0  0  0  0  0  0  0  0  0
   -0.4305   -2.3400   -1.5798 H   0  0  0  0  0  0  0  0  0  0  0  0
   -1.5644    1.4650    2.0120 H   0  0  0  0  0  0  0  0  0  0  0  0
    0.7459    0.8379    2.4352 H   0  0  0  0  0  0  0  0  0  0  0  0
    0.7490    2.1749    1.2961 H   0  0  0  0  0  0  0  0  0  0  0  0
    1.1528   -0.7896    0.7479 H   0  0  0  0  0  0  0  0  0  0  0  0
    4.3807    2.0110    0.8648 H   0  0  0  0  0  0  0  0  0  0  0  0
    2.7485    2.5535    1.0362 H   0  0  0  0  0  0  0  0  0  0  0  0
    3.4192    2.2297   -0.5633 H   0  0  0  0  0  0  0  0  0  0  0  0
    3.4951    0.7540    2.6692 H   0  0  0  0  0  0  0  0  0  0  0  0
    2.4852   -0.6497    2.4829 H   0  0  0  0  0  0  0  0  0  0  0  0
    4.2004   -2.0656    1.8410 H   0  0  0  0  0  0  0  0  0  0  0  0
    4.9023   -1.0506    3.0913 H   0  0  0  0  0  0  0  0  0  0  0  0
    6.4713   -1.3464    1.2245 H   0  0  0  0  0  0  0  0  0  0  0  0
    6.4589    0.5508    2.4160 H   0  0  0  0  0  0  0  0  0  0  0  0
    5.6638    1.4329   -0.9369 H   0  0  0  0  0  0  0  0  0  0  0  0
    7.0064    0.3006   -1.0920 H   0  0  0  0  0  0  0  0  0  0  0  0
    5.7201    0.3059   -2.2912 H   0  0  0  0  0  0  0  0  0  0  0  0
    6.6479   -2.1812   -0.9334 H   0  0  0  0  0  0  0  0  0  0  0  0
    5.2722   -2.1260   -2.0311 H   0  0  0  0  0  0  0  0  0  0  0  0
    5.0931   -2.8517   -0.4278 H   0  0  0  0  0  0  0  0  0  0  0  0
    3.2147   -1.5322   -0.2704 H   0  0  0  0  0  0  0  0  0  0  0  0
    3.2939    0.8169   -2.2101 H   0  0  0  0  0  0  0  0  0  0  0  0
    3.5782   -0.8531   -2.6450 H   0  0  0  0  0  0  0  0  0  0  0  0
    1.2540   -0.3201   -3.0448 H   0  0  0  0  0  0  0  0  0  0  0  0
    1.4586   -1.5667   -1.8348 H   0  0  0  0  0  0  0  0  0  0  0  0
    0.4777    1.8427   -2.6142 H   0  0  0  0  0  0  0  0  0  0  0  0
   -0.0792    2.4063   -1.0386 H   0  0  0  0  0  0  0  0  0  0  0  0
    1.6281    2.3116   -1.4097 H   0  0  0  0  0  0  0  0  0  0  0  0
   -3.4276    1.2950    0.7757 H   0  0  0  0  0  0  0  0  0  0  0  0
   -3.6502   -1.6906    0.3426 H   0  0  0  0  0  0  0  0  0  0  0  0
   -3.2012   -0.9770    1.8754 H   0  0  0  0  0  0  0  0  0  0  0  0
  1  2  1  0
  2  3  1  0
  2  4  1  0
  4  5  1  0
  5  6  1  0
  6  7  1  6
  7  8  2  0
  7  9  1  0
  6 10  1  0
 10 11  1  0
 11 12  1  0
 12 13  1  1
 12 14  1  0
 14 15  2  0
 15 16  1  0
 16 17  1  0
 17 18  1  0
 18 19  1  6
 18 20  1  0
 20 21  1  0
 21 22  1  0
 22 23  1  0
 22 24  1  0
 24 25  1  0
 24 26  1  0
 24 27  1  0
 27 28  1  0
 28 29  1  0
 29 30  1  0
 30 31  1  6
 14 32  1  0
 32 33  1  0
 33  2  1  0
 32  6  1  0
 30 12  1  0
 30 17  1  0
 27 18  1  0
  1 34  1  0
  1 35  1  0
  1 36  1  0
  3 37  1  0
  3 38  1  0
  3 39  1  0
  4 40  1  0
  4 41  1  0
  5 42  1  0
  5 43  1  0
  9 44  1  0
 10 45  1  0
 10 46  1  0
 11 47  1  0
 11 48  1  0
 13 49  1  0
 13 50  1  0
 13 51  1  0
 15 52  1  0
 16 53  1  0
 16 54  1  0
 17 55  1  1
 19 56  1  0
 19 57  1  0
 19 58  1  0
 20 59  1  0
 20 60  1  0
 21 61  1  0
 21 62  1  0
 22 63  1  6
 23 64  1  0
 25 65  1  0
 25 66  1  0
 25 67  1  0
 26 68  1  0
 26 69  1  0
 26 70  1  0
 27 71  1  1
 28 72  1  0
 28 73  1  0
 29 74  1  0
 29 75  1  0
 31 76  1  0
 31 77  1  0
 31 78  1  0
 32 79  1  1
 33 80  1  0
 33 81  1  0
M  END
