
     RDKit          3D

 20 20  0  0  0  0  0  0  0  0999 V2000
   -4.5074    0.6493    1.2679 O   0  0  0  0  0  0  0  0  0  0  0  0
   -3.6505    0.5228    0.4116 C   0  0  0  0  0  0  0  0  0  0  0  0
   -3.9492    0.5753   -0.8951 O   0  0  0  0  0  0  0  0  0  0  0  0
   -2.2256    0.3035    0.6931 C   0  0  0  0  0  0  0  0  0  0  0  0
   -1.2929    0.1599   -0.2611 C   0  0  0  0  0  0  0  0  0  0  0  0
    0.1351   -0.0484    0.0156 C   0  0  0  0  0  0  0  0  0  0  0  0
    1.0805    0.5257   -0.8468 C   0  0  0  0  0  0  0  0  0  0  0  0
    2.4496    0.3331   -0.6375 C   0  0  0  0  0  0  0  0  0  0  0  0
    2.8735   -0.4468    0.4321 C   0  0  0  0  0  0  0  0  0  0  0  0
    4.1972   -0.6629    0.6745 O   0  0  0  0  0  0  0  0  0  0  0  0
    1.9535   -1.0378    1.2883 C   0  0  0  0  0  0  0  0  0  0  0  0
    0.5858   -0.8439    1.0780 C   0  0  0  0  0  0  0  0  0  0  0  0
   -4.9177    0.7214   -0.9056 H   0  0  0  0  0  0  0  0  0  0  0  0
   -1.9821    0.2785    1.7492 H   0  0  0  0  0  0  0  0  0  0  0  0
   -1.5656    0.2157   -1.3129 H   0  0  0  0  0  0  0  0  0  0  0  0
    0.7580    1.1370   -1.6871 H   0  0  0  0  0  0  0  0  0  0  0  0
    3.1601    0.7950   -1.3154 H   0  0  0  0  0  0  0  0  0  0  0  0
    4.7170   -0.1917    0.0030 H   0  0  0  0  0  0  0  0  0  0  0  0
    2.2977   -1.6532    2.1147 H   0  0  0  0  0  0  0  0  0  0  0  0
   -0.1170   -1.3325    1.7481 H   0  0  0  0  0  0  0  0  0  0  0  0
  1  2  2  0
  2  3  1  0
  2  4  1  0
  4  5  2  0
  5  6  1  0
  6  7  1  0
  7  8  2  0
  8  9  1  0
  9 10  1  0
  9 11  2  0
 11 12  1  0
 12  6  2  0
  3 13  1  0
  4 14  1  0
  5 15  1  0
  7 16  1  0
  8 17  1  0
 10 18  1  0
 11 19  1  0
 12 20  1  0
M  END
