
     RDKit          3D

 41 43  0  0  0  0  0  0  0  0999 V2000
   -0.5110    1.0888   -1.6458 C   0  0  0  0  0  0  0  0  0  0  0  0
   -1.8270    0.4572   -1.1596 C   0  0  0  0  0  0  0  0  0  0  0  0
   -2.9259    1.5259   -1.2164 C   0  0  0  0  0  0  0  0  0  0  0  0
   -1.5882   -0.0344    0.6092 S   0  0  0  0  0  0  0  0  0  0  0  0
   -1.4757   -1.8373    0.2561 C   0  0  2  0  0  0  0  0  0  0  0  0
   -0.0585   -2.4677    0.1738 C   0  0  2  0  0  0  0  0  0  0  0  0
    1.0699   -1.7287    0.7986 N   0  0  0  0  0  0  0  0  0  0  0  0
    1.2209   -1.6865    2.1660 C   0  0  0  0  0  0  0  0  0  0  0  0
    0.5050   -2.3468    2.9171 O   0  0  0  0  0  0  0  0  0  0  0  0
    2.3755   -0.8449    2.6851 C   0  0  0  0  0  0  0  0  0  0  0  0
    2.5981    0.4499    1.9384 C   0  0  0  0  0  0  0  0  0  0  0  0
    3.7090    0.6089    1.0983 C   0  0  0  0  0  0  0  0  0  0  0  0
    3.8890    1.7943    0.3840 C   0  0  0  0  0  0  0  0  0  0  0  0
    2.9641    2.8299    0.5037 C   0  0  0  0  0  0  0  0  0  0  0  0
    1.8593    2.6834    1.3398 C   0  0  0  0  0  0  0  0  0  0  0  0
    1.6763    1.4997    2.0550 C   0  0  0  0  0  0  0  0  0  0  0  0
   -0.2284   -2.2641   -1.3502 C   0  0  0  0  0  0  0  0  0  0  0  0
    0.4940   -2.2316   -2.3193 O   0  0  0  0  0  0  0  0  0  0  0  0
   -1.5500   -1.9534   -1.2116 N   0  0  0  0  0  0  0  0  0  0  0  0
   -2.1451   -0.8388   -1.9381 C   0  0  1  0  0  0  0  0  0  0  0  0
   -3.6374   -1.1296   -2.0785 C   0  0  0  0  0  0  0  0  0  0  0  0
   -4.3514   -1.7479   -1.3050 O   0  0  0  0  0  0  0  0  0  0  0  0
   -4.1667   -0.5918   -3.1990 O   0  0  0  0  0  0  0  0  0  0  0  0
   -0.5886    1.3677   -2.7033 H   0  0  0  0  0  0  0  0  0  0  0  0
   -0.2720    2.0028   -1.0889 H   0  0  0  0  0  0  0  0  0  0  0  0
    0.3456    0.4147   -1.5503 H   0  0  0  0  0  0  0  0  0  0  0  0
   -3.8727    1.1771   -0.7890 H   0  0  0  0  0  0  0  0  0  0  0  0
   -3.1178    1.8290   -2.2521 H   0  0  0  0  0  0  0  0  0  0  0  0
   -2.6370    2.4303   -0.6669 H   0  0  0  0  0  0  0  0  0  0  0  0
   -2.2250   -2.4485    0.7679 H   0  0  0  0  0  0  0  0  0  0  0  0
   -0.0252   -3.5322    0.4385 H   0  0  0  0  0  0  0  0  0  0  0  0
    1.6149   -1.0842    0.2336 H   0  0  0  0  0  0  0  0  0  0  0  0
    2.1830   -0.6086    3.7388 H   0  0  0  0  0  0  0  0  0  0  0  0
    3.2779   -1.4670    2.6582 H   0  0  0  0  0  0  0  0  0  0  0  0
    4.4427   -0.1876    0.9924 H   0  0  0  0  0  0  0  0  0  0  0  0
    4.7533    1.9118   -0.2650 H   0  0  0  0  0  0  0  0  0  0  0  0
    3.1067    3.7534   -0.0516 H   0  0  0  0  0  0  0  0  0  0  0  0
    1.1376    3.4907    1.4354 H   0  0  0  0  0  0  0  0  0  0  0  0
    0.8042    1.3991    2.6993 H   0  0  0  0  0  0  0  0  0  0  0  0
   -1.7138   -0.8193   -2.9469 H   0  0  0  0  0  0  0  0  0  0  0  0
   -5.1096   -0.8635   -3.1700 H   0  0  0  0  0  0  0  0  0  0  0  0
  1  2  1  0
  2  3  1  0
  2  4  1  0
  4  5  1  0
  5  6  1  0
  6  7  1  0
  7  8  1  0
  8  9  2  0
  8 10  1  0
 10 11  1  0
 11 12  2  0
 12 13  1  0
 13 14  2  0
 14 15  1  0
 15 16  2  0
  6 17  1  0
 17 18  2  0
 17 19  1  0
 19 20  1  0
 20 21  1  0
 21 22  2  0
 21 23  1  0
 20  2  1  0
 19  5  1  0
 16 11  1  0
  1 24  1  0
  1 25  1  0
  1 26  1  0
  3 27  1  0
  3 28  1  0
  3 29  1  0
  5 30  1  1
  6 31  1  6
  7 32  1  0
 10 33  1  0
 10 34  1  0
 12 35  1  0
 13 36  1  0
 14 37  1  0
 15 38  1  0
 16 39  1  0
 20 40  1  6
 23 41  1  0
M  END
