
     RDKit          3D

 20 22  0  0  0  0  0  0  0  0999 V2000
   -4.3337    1.3443    0.4254 O   0  0  0  0  0  0  0  0  0  0  0  0
   -3.2484    0.7843    0.3255 C   0  0  0  0  0  0  0  0  0  0  0  0
   -3.1548   -0.6853    0.3589 C   0  0  0  0  0  0  0  0  0  0  0  0
   -1.9912   -1.3339    0.2532 C   0  0  0  0  0  0  0  0  0  0  0  0
   -0.7567   -0.5792    0.0984 C   0  0  0  0  0  0  0  0  0  0  0  0
    0.4835   -1.2263   -0.0156 C   0  0  0  0  0  0  0  0  0  0  0  0
    1.6448   -0.4420   -0.1635 C   0  0  0  0  0  0  0  0  0  0  0  0
    3.0335   -0.7045   -0.3048 C   0  0  0  0  0  0  0  0  0  0  0  0
    3.6529    0.5199   -0.4075 C   0  0  0  0  0  0  0  0  0  0  0  0
    2.7415    1.5248   -0.3394 O   0  0  0  0  0  0  0  0  0  0  0  0
    1.5190    0.9437   -0.1910 C   0  0  0  0  0  0  0  0  0  0  0  0
    0.3109    1.6242   -0.0814 C   0  0  0  0  0  0  0  0  0  0  0  0
   -0.8189    0.8162    0.0637 C   0  0  0  0  0  0  0  0  0  0  0  0
   -2.0593    1.4841    0.1771 O   0  0  0  0  0  0  0  0  0  0  0  0
   -4.0938   -1.2126    0.4753 H   0  0  0  0  0  0  0  0  0  0  0  0
   -1.9502   -2.4173    0.2809 H   0  0  0  0  0  0  0  0  0  0  0  0
    0.5585   -2.3092    0.0084 H   0  0  0  0  0  0  0  0  0  0  0  0
    3.5230   -1.6676   -0.3288 H   0  0  0  0  0  0  0  0  0  0  0  0
    4.6813    0.8318   -0.5271 H   0  0  0  0  0  0  0  0  0  0  0  0
    0.2580    2.7046   -0.1077 H   0  0  0  0  0  0  0  0  0  0  0  0
  1  2  2  0
  2  3  1  0
  3  4  2  0
  4  5  1  0
  5  6  1  0
  6  7  2  0
  7  8  1  0
  8  9  2  0
  9 10  1  0
 10 11  1  0
 11 12  2  0
 12 13  1  0
 13 14  1  0
 14  2  1  0
 13  5  2  0
 11  7  1  0
  3 15  1  0
  4 16  1  0
  6 17  1  0
  8 18  1  0
  9 19  1  0
 12 20  1  0
M  END
