
     RDKit          3D

 29 30  0  0  0  0  0  0  0  0999 V2000
    6.1434   -0.2529    0.1338 O   0  0  0  0  0  0  0  0  0  0  0  0
    4.7885   -0.2748   -0.0136 C   0  0  0  0  0  0  0  0  0  0  0  0
    4.0786    0.8607    0.3544 C   0  0  0  0  0  0  0  0  0  0  0  0
    2.6881    0.8827    0.2203 C   0  0  0  0  0  0  0  0  0  0  0  0
    2.0029   -0.2361   -0.2727 C   0  0  0  0  0  0  0  0  0  0  0  0
    0.5447   -0.2439   -0.4578 C   0  0  0  0  0  0  0  0  0  0  0  0
   -0.3191    0.3181    0.4035 C   0  0  0  0  0  0  0  0  0  0  0  0
   -1.7773    0.3156    0.2179 C   0  0  0  0  0  0  0  0  0  0  0  0
   -2.5049    1.4587    0.5742 C   0  0  0  0  0  0  0  0  0  0  0  0
   -3.8906    1.4791    0.4362 C   0  0  0  0  0  0  0  0  0  0  0  0
   -4.5472    2.6217    0.7896 O   0  0  0  0  0  0  0  0  0  0  0  0
   -4.5768    0.3703   -0.0433 C   0  0  0  0  0  0  0  0  0  0  0  0
   -3.8569   -0.7697   -0.3802 C   0  0  0  0  0  0  0  0  0  0  0  0
   -4.5589   -1.8479   -0.8360 O   0  0  0  0  0  0  0  0  0  0  0  0
   -2.4688   -0.8108   -0.2509 C   0  0  0  0  0  0  0  0  0  0  0  0
    2.7401   -1.3664   -0.6540 C   0  0  0  0  0  0  0  0  0  0  0  0
    4.1318   -1.3906   -0.5199 C   0  0  0  0  0  0  0  0  0  0  0  0
    6.5013   -1.1065   -0.1598 H   0  0  0  0  0  0  0  0  0  0  0  0
    4.6041    1.7299    0.7395 H   0  0  0  0  0  0  0  0  0  0  0  0
    2.1513    1.7875    0.4945 H   0  0  0  0  0  0  0  0  0  0  0  0
    0.1914   -0.7460   -1.3549 H   0  0  0  0  0  0  0  0  0  0  0  0
    0.0347    0.8255    1.2983 H   0  0  0  0  0  0  0  0  0  0  0  0
   -1.9993    2.3437    0.9525 H   0  0  0  0  0  0  0  0  0  0  0  0
   -5.4979    2.4901    0.6374 H   0  0  0  0  0  0  0  0  0  0  0  0
   -5.6556    0.3722   -0.1543 H   0  0  0  0  0  0  0  0  0  0  0  0
   -3.9359   -2.5705   -1.0192 H   0  0  0  0  0  0  0  0  0  0  0  0
   -1.9237   -1.7158   -0.5001 H   0  0  0  0  0  0  0  0  0  0  0  0
    2.2342   -2.2434   -1.0514 H   0  0  0  0  0  0  0  0  0  0  0  0
    4.6780   -2.2806   -0.8150 H   0  0  0  0  0  0  0  0  0  0  0  0
  1  2  1  0
  2  3  1  0
  3  4  2  0
  4  5  1  0
  5  6  1  0
  6  7  2  0
  7  8  1  0
  8  9  2  0
  9 10  1  0
 10 11  1  0
 10 12  2  0
 12 13  1  0
 13 14  1  0
 13 15  2  0
  5 16  2  0
 16 17  1  0
 17  2  2  0
 15  8  1  0
  1 18  1  0
  3 19  1  0
  4 20  1  0
  6 21  1  0
  7 22  1  0
  9 23  1  0
 11 24  1  0
 12 25  1  0
 14 26  1  0
 15 27  1  0
 16 28  1  0
 17 29  1  0
M  END
